352
i=
  H         4.8368033616        1.5146191225       12.7118614006
  C         4.2982056428        2.4252899623       12.7650269992
  H         4.9854446656        3.2510087996       12.7318526230
  C         3.3053901263        2.4849860076       11.6684558908
  C         3.6340060720        2.4836278441       14.0651598252
  C         3.9472550744        2.7114142944       10.2920655354
  H         2.6717093645        3.2737242697       11.8892404503
  H         2.5994453222        1.6320317317       11.5885377588
  H         3.0947254489        1.5999848995       14.2664751066
  H         2.8810462743        3.3012944677       14.0634841216
  H         4.3063433812        2.4848714740       14.8538277552
  C         4.7434929915        1.4739990892        9.6665800447
  H         3.2015430386        2.9239838067        9.6367328597
  H         4.5221067969        3.6070380025       10.1904020061
  C         5.4646736130        1.6756773404        8.3825018063
  H         3.9083838025        0.7641528907        9.5060946601
  H         5.3555434878        1.0916864562       10.4760757103
  C         6.7581313574        2.5092524192        8.3622151859
  H         4.8119054047        2.1164115897        7.6186657216
  H         5.6272548532        0.7072363729        7.9562521839
  C         8.0225331908        1.8661933712        8.8953916244
  H         6.8621516132        2.8731532740        7.3772979241
  H         6.4484297391        3.3076312170        8.9712752745
  C         9.1759131714        2.7848707148        9.1236785829
  H         8.4458271157        1.1930261432        8.1173796052
  H         7.7076149975        1.3688105872        9.7925552432
  C         8.7320048194        4.1062717187        9.7203526040
  C         9.6024441223        3.4482490193        7.8473895274
  C        10.3092045961        2.0419039116        9.8167798026
  C         8.9711196001        5.1862638237        8.9217029084
  C         8.1489615445        4.4782741830       10.9833599116
  C         9.5542718882        4.8050964776        7.7453207634
  C        10.1800834169        2.8720271302        6.7224972268
  H         9.8290652499        1.4631938753       10.6119403646
  H        10.6658059420        1.2826335924        9.1574333750
  C        11.3982857820        3.0120226951       10.3259262189
  S         8.4773307043        6.7270796507        9.6800199714
  C         7.9717477768        5.8288713977       11.0825688379
  H         7.9822566988        3.8267809740       11.8387425723
  C         9.8858199142        5.4555778452        6.6017691277
  H        10.3104913739        1.8009041088        6.7012869265
  C        10.5211793968        3.5313376774        5.5494613276
  H        11.1087738865        3.6998277332       11.1024368046
  H        11.6970065921        3.5401930962        9.4274741751
  C        12.5833142316        2.1340520725       10.9063792947
  C         7.5204741447        6.5149952999       12.3615593494
  C        10.4051394038        4.8419005591        5.4299829276
  H         9.7636847142        6.5172219357        6.6276705547
  C        10.9984444860        3.1939533523        4.3056812550
  H        13.4871334138        2.7587335547       10.8573640882
  H        12.7965486412        1.2732137995       10.3102882385
  C        12.3332478098        1.7814954885       12.3992453752
  C         7.5518257039        7.9119785411       12.6067656800
  C         7.3507339595        5.6429792084       13.6151254834
  C        10.7563149683        5.5983987573        4.1826780648
  C        11.1771002544        4.3061056866        3.4447235604
  S        11.1584707601        1.7205024995        3.5133432540
  H        11.7852873505        2.5862143533       13.0043431028
  H        11.7522516467        0.8432484403       12.5206242356
  C        13.5855709792        1.7989878986       13.2434390078
  N         7.8109280210        8.8786691475       11.6697389351
  C         7.4158447920        8.4041474871       13.9284569129
  C         7.1653403171        6.1944430550       14.8743367686
  H         6.9633305495        4.6187175441       13.5490671571
  C        12.0957201456        6.4858871307        4.3503708200
  C         9.5209387431        6.3812167792        3.6471289555
  C        11.6175670791        3.8998063042        2.1584025767
  C        11.5375592772        2.5320455890        2.0173770837
  H        14.0513001778        2.8034888784       13.2310018070
  H        14.3059419433        1.0847803764       12.7435552491
  C        13.3539396372        1.2732184992       14.6834345181
  S         8.0549098296       10.2503723478       12.4915450559
  N         7.6675419286        9.7451675573       13.9978645723
  C         7.1835156304        7.6433601311       15.1140391030
  H         7.0235760233        5.5255674554       15.6972584034
  H        11.9681757380        7.2711952157        5.0692369888
  H        12.1459831994        6.9079406423        3.3259705525
  C        13.3220965781        5.7022407310        4.7017463776
  H         9.1629195216        7.1797410740        4.2684458394
  H         9.8286220321        6.9278854974        2.7465448494
  C         8.3396839543        5.4247356087        3.2065676818
  H        11.9569857922        4.6554560422        1.5064170208
  C        11.8843732005        1.8351532938        0.7819379672
  H        12.4432803447        0.7219516578       14.8826303083
  H        14.0549792695        0.5645212062       15.0162777112
  C        13.2522589003        2.4970504107       15.5808921553
  C         6.9559646232        8.2807657334       16.3748104892
  H        13.0361262962        5.0226182849        5.5963831927
  H        13.6918157580        5.0842801345        3.8415319434
  C        14.4870796186        6.6353888107        5.1655989886
  H         8.2125507903        4.6585494271        3.9440990991
  H         8.8300032447        4.9809638136        2.3312076198
  C         7.0734611964        6.2156380661        2.8627085752
  C        11.9202212225        0.4213101390        0.5994391458
  C        12.0371961463        2.6121739861       -0.4599251632
  H        12.5219738899        3.1472908553       15.0717994731
  H        14.2415294916        3.0721009206       15.5448436287
  C        12.7990719096        2.1633410072       17.0238902758
  H         6.9685317958        9.4017211713       16.3565873932
  C         6.5173212789        7.7976355224       17.6190297564
  H        14.2794600596        7.0561384406        6.1765900409
  H        14.3359991467        7.5379855552        4.5842779484
  C        15.9247075596        6.0703252532        5.0863251853
  H         6.6075320357        6.5959333880        3.7908081581
  H         7.1667046472        7.0497152933        2.1361447240
  C         6.0520309806        5.2843044127        2.2840850636
  N        11.7267525603       -0.4596011196        1.6657632967
  C        12.2950251369       -0.1937938926       -0.5981314477
  C        12.2685858582        1.9502392225       -1.6898960632
  H        11.7951193840        3.6855931062       -0.4710160597
  H        11.9374539182        1.5200514405       16.9610020989
  H        12.5082621137        3.0438585311       17.6274233249
  H        13.6071651937        1.6771470666       17.6103142736
  S         6.0373954113        6.1386708841       17.9768614471
  C         6.4205099616        8.7953586335       18.6598668742
  H        15.9593484443        5.3253995955        4.3260108330
  H        16.6301945547        6.7372425975        4.6821640675
  C        16.3821379846        5.4702801538        6.3562853789
  H         5.4832627382        4.8062117334        3.0802596913
  H         6.6370477618        4.4215688199        1.8241367348
  C         5.1250317907        6.0648590124        1.3769518577
  S        11.7995492806       -1.9947156309        1.0546290809
  N        12.2290255892       -1.5906211888       -0.4451552528
  C        12.4758869007        0.5192275333       -1.7733956197
  H        12.2599291463        2.5019315980       -2.6420974120
  C         5.7977522545        6.8669788476       19.6142384245
  N         5.8063536094        8.2295361597       19.7156227608
  O         6.6443925489        9.9949840887       18.5322033870
  H        16.3508507856        6.2331987520        7.1349661560
  H        15.6188163557        4.7111505249        6.7267575561
  C        17.8229054520        4.8954717767        6.3059373470
  H         5.6744986043        6.5304501309        0.5097235494
  H         4.4187871770        5.2499507326        0.9819280413
  C         4.1413201242        7.1820711855        1.9450861207
  C        12.7634531417       -0.2784740093       -2.8808683836
  S         5.4127407130        5.9981484550       21.0303253006
  C         5.5814474472        8.8676309854       20.9385336197
  H        18.0322835302        4.0302848518        6.9365770930
  H        18.0173888925        4.5297172847        5.3053607032
  C        18.6139015426        6.1100861322        6.9042798795
  H         4.4603521992        7.6887087183        2.8157723859
  H         3.2428685986        6.6369986226        2.2124096116
  C         3.7443504902        8.3277170392        1.0560805044
  H        12.3522610355       -1.2384330806       -2.7111106646
  C        13.2711048160        0.0419191511       -4.1034027054
  H         4.8483151909        8.3091698928       21.4775696679
  H         5.2274099257        9.8871160128       20.8785416737
  C         6.8032460472        8.9425306267       21.7390344890
  H        18.5855314614        6.0712755098        7.9881559569
  H        18.2894056858        7.0687743734        6.6203421289
  C        20.1228282057        6.0008516355        6.5112406339
  H         3.8394666741        8.0531889145       -0.0406286585
  H         2.6574870054        8.5069885829        1.1355994923
  C         4.5687981967        9.5743872802        1.3531275470
  S        13.9179704364        1.5864281907       -4.5027110960
  C        13.3812486368       -0.9356704719       -5.1986243108
  H         7.6453902120        9.0467605758       21.0967618250
  H         6.9227260000        7.9831058383       22.2370359807
  H         6.8460981284        9.8939288925       22.3366004078
  H        20.7753967989        6.6526362564        7.1077993376
  H        20.5046286923        5.0508166209        6.6222748404
  H        20.2740352166        6.1055525994        5.4347312031
  H         4.2047085951       10.0037821660        2.3389506320
  H         5.6155545336        9.2700750511        1.4945958580
  H         4.5163186389       10.2704986682        0.5566730850
  C        14.1665740225        0.9908876372       -6.0737635267
  N        13.9747162842       -0.3222776104       -6.2442324429
  O        12.9191985009       -2.0739520457       -5.1618966567
  S        14.6065859920        1.9565918777       -7.4765247621
  C        14.1587855965       -1.1206509932       -7.4909052235
  H        14.2489468884       -2.1548965153       -7.2369347482
  H        15.1522100221       -0.8735860455       -7.7821663801
  C        13.0678811718       -0.8522766781       -8.4772253674
  H        12.2848538096       -0.1037001887       -8.2075306477
  H        12.5705537774       -1.7527308201       -8.6061903910
  H        13.5117549387       -0.5486399119       -9.4620584300
  H        -3.7363048534       14.4237444521       16.9392048784
  C        -3.2406837905       13.5004111820       16.8135392115
  H        -3.8417596220       12.7675825035       17.3195682146
  C        -1.8952457223       13.5210108425       17.4742433954
  C        -3.1898834777       13.1852193253       15.2744945668
  C        -1.9281431671       13.9807396850       18.9074034018
  H        -1.6137349209       12.4715638251       17.5542265952
  H        -1.2245609838       14.1158072611       16.8354018096
  H        -2.3250401833       13.6198598523       14.7667952845
  H        -3.1804737589       12.1315652849       15.0424649925
  H        -4.1130331359       13.4720822944       14.9440027408
  C        -2.1289678854       12.8818180549       19.9096652829
  H        -2.7279790671       14.6854545454       19.0618985336
  H        -0.9705195708       14.4882706576       19.1655462125
  C        -2.4787980524       13.3543665611       21.3093131091
  H        -2.9345355257       12.1998593082       19.5319832574
  H        -1.1954058472       12.3401524601       19.8163800312
  C        -1.3940757480       13.0083203482       22.3370425673
  H        -3.4911126346       13.1456519988       21.5180304506
  H        -2.4969597744       14.4772812353       21.1938526485
  C        -0.1708517818       13.9558544233       22.4414140491
  H        -1.9491655199       12.8614367649       23.2704831547
  H        -1.1024026938       11.9795331522       22.0616431938
  C         1.0206816412       13.3279810208       23.1476749743
  H         0.1707661632       14.0600008565       21.4522030489
  H        -0.4766487209       14.9088285545       22.7430485091
  C         1.2603723406       11.9870828924       22.4159132314
  C         0.5454975544       12.6911388403       24.3745032527
  C         2.2889931442       14.3069459141       23.2862438996
  C         1.1458703949       10.9264310475       23.2901501491
  C         1.7046356688       11.6083676050       21.1496976029
  C         0.6711566856       11.3691053494       24.5089761558
  C         0.1200258341       13.3553967813       25.5201410413
  H         2.7048381980       14.7020137034       22.3099840947
  H         1.9104895667       15.1373197053       23.7633086239
  C         3.4205160288       13.5481624073       24.1484261283
  S         1.5818870725        9.4134514606       22.6313465193
  C         1.8987604097       10.2520708219       21.1406555518
  H         1.9496000673       12.3210740633       20.3895879294
  C         0.2572206469       10.7621559496       25.6181393073
  H         0.1677777639       14.3883825191       25.4090853967
  C        -0.3382473663       12.6726849433       26.6451565712
  H         3.3437731279       12.4399518371       24.1505402367
  H         3.0935610442       13.7454023739       25.1768488695
  C         4.8072301084       14.1473266390       23.9962175009
  C         2.4017215554        9.4026046774       19.8930660998
  C        -0.2232552261       11.3413971745       26.7869556160
  H         0.2278500702        9.6548214730       25.6540654656
  C        -0.7998247270       13.1032397279       27.9380067955
  H         5.4887494874       13.6209140728       24.6118637058
  H         4.8349267586       15.1367357628       24.5125851993
  C         5.3589772438       14.1651469784       22.5860348887
  C         2.3501558002        8.0014806661       19.7652365875
  C         2.9921035757       10.1996125583       18.8174340314
  C        -0.6570521601       10.6845809525       27.9905849323
  C        -0.9755303183       12.0062986221       28.7780278722
  S        -1.0862846435       14.6171154529       28.6768991204
  H         6.4388170033       14.5282316976       22.6589632581
  H         4.7160025299       14.8861165630       21.9724684131
  C         5.4535168755       12.8173048805       21.8338986135
  N         1.9873228909        7.0626789195       20.7461654373
  C         2.6760899013        7.3831032956       18.5330976120
  C         3.3852544832        9.5526281185       17.6302923176
  H         2.7906553577       11.2625092388       18.7050002290
  C         0.4235108196        9.8659428873       28.8094903029
  C        -1.8729327847        9.7612952531       27.7671519475
  C        -1.3102116942       12.4104652788       30.0637579553
  C        -1.3485628443       13.7776299500       30.2234511599
  H         6.1590105879       12.2437343653       22.3442721820
  H         4.4989856859       12.3022754114       21.9548311927
  C         5.8529312108       12.9786443882       20.3411201300
  S         2.1681343279        5.5215167761       20.1672589082
  N         2.4709256093        5.9968739145       18.5601909464
  C         3.2055809849        8.0754223758       17.4116481456
  H         3.9733231082       10.0321999204       16.8404763795
  H         0.7982132163        9.0365865001       28.1885176521
  H        -0.0354530913        9.3767286486       29.7028857506
  C         1.6033810056       10.7058678626       29.2119563755
  H        -1.6473310797        9.2121846764       26.8355762490
  H        -1.9208883213        9.0438628137       28.5520426799
  C        -3.1310065008       10.5273787349       27.4882012241
  H        -1.5070915948       11.6960434838       30.8930770271
  C        -1.5227876068       14.5181410220       31.4849337379
  H         5.2726224275       13.7481421301       19.7380510787
  H         5.5122684199       12.1069909467       19.8347418679
  C         7.4110547270       13.1197491078       20.0971196739
  C         3.4709042507        7.3433461243       16.2318966880
  H         1.8375383868       11.3446401058       28.3766048132
  H         1.3972966662       11.4278467661       29.9808033230
  C         2.6870915863        9.6864086833       29.6731664816
  H        -2.9893040730       11.0768372112       26.5478610216
  H        -3.3876067953       11.1971470302       28.3167296980
  C        -4.3444036605        9.5226216348       27.4136270980
  C        -1.5300924959       15.9309468437       31.6614500008
  C        -1.8106410877       13.7611569168       32.7853175407
  H         7.8758733651       13.7964120299       20.8349257716
  H         7.7888221007       12.0824252278       20.2927906280
  C         7.7220253190       13.6774639240       18.7444831565
  H         3.6238666825        6.3026224464       16.3358436798
  C         3.8369286665        7.8413026212       14.9587640354
  H         2.8669968141        8.9771556818       28.8170363967
  H         2.0638673399        9.2231412015       30.3923173244
  C         3.9716611438       10.3257543584       30.3755555061
  H        -4.1223240374        8.7755959480       26.6433015450
  H        -4.5563187433        8.9246603470       28.2636525648
  C        -5.6222313214       10.3872963924       27.0952906867
  N        -1.2759200558       16.8206874481       30.6624204235
  C        -1.8566291738       16.5652179597       32.8538688076
  C        -2.0669374602       14.4320950700       33.9554313643
  H        -1.7323633690       12.6940252054       32.9483341329
  H         6.9753535182       14.3664547732       18.2526477761
  H         8.6372418724       14.2075596857       18.9570953753
  H         7.9772358362       12.8771927956       18.0339263456
  S         4.0216639603        9.4793066529       14.3705615832
  C         3.9794403887        6.7792170251       13.9626492354
  H         4.3838758985       11.1901107607       29.9266512323
  H         3.8678044735       10.6024251151       31.3590949767
  C         5.1726688435        9.3559138072       30.3418233006
  H        -5.4231626214       11.2659051455       26.6023959551
  H        -6.1581183505       10.6673528695       27.9822997339
  C        -6.6737179517        9.5944056267       26.2136889908
  S        -1.5202373604       18.3685029655       31.1770868448
  N        -1.8032801854       17.9908900158       32.6671417108
  C        -2.1189107600       15.9107673201       34.0558967202
  H        -2.1014125146       13.8229297408       34.8666027479
  C         4.1498413998        8.7012937844       12.7407057438
  N         4.3140099321        7.3803193619       12.7587536712
  O         3.8902195116        5.5559854693       14.1518902280
  H         6.1597756493        9.7859796427       30.6635475969
  H         5.4355632270        9.0822791380       29.3260455896
  C         4.9415101851        8.1390299212       31.1536689919
  H        -6.1075285832        9.0765766837       25.4561450569
  H        -7.2954909412        9.0368591477       26.9048859135
  C        -7.5074925082       10.6409242979       25.3052401058
  C        -2.5821571092       16.6507148165       35.1958849827
  S         4.6287472077        9.6081961793       11.3099093269
  C         4.3410567124        6.7034514293       11.5116569642
  H         4.2753094244        8.3856128214       32.0416428332
  H         4.3509022559        7.4719657343       30.4733639452
  C         6.1808960392        7.3225795094       31.5569870221
  H        -6.9106083598       10.9050630774       24.5213969253
  H        -7.8020611671       11.4901687412       25.9751778376
  C        -8.8146237557       10.0209680330       24.7176973237
  H        -2.5277985342       17.7526390858       35.0159287154
  C        -3.0921752250       16.3260482101       36.4139298847
  H         5.0987807895        7.2057078842       10.9203609473
  H         4.8368184964        5.7161097909       11.7106768744
  C         3.0475364080        6.4332332403       10.7881378033
  H         6.0700211355        6.8093641875       32.4914220444
  H         6.9507605402        7.9981471053       31.8074161621
  C         6.8403788679        6.4593276749       30.4835529646
  H        -8.8579465695       10.4790716838       23.7224972212
  H        -8.5688603602        9.0047039311       24.5870689942
  C       -10.0498211701        9.9921928589       25.5968663261
  S        -3.5732270711       14.7719137924       37.0800785782
  C        -3.0924715544       17.4220916467       37.4008270924
  H         3.1520670444        6.4702183234        9.7341388264
  H         2.5154971081        5.4899028403       11.0214156707
  H         2.3228234081        7.1973403237       10.9251183785
  H         7.8192623359        6.1597422000       30.6966183726
  H         6.8917873238        6.9147320238       29.5130091046
  H         6.2334244765        5.5886191050       30.3987817598
  H        -9.8394646751        9.3702326740       26.4654162626
  H       -11.0011561799        9.5961638077       25.1989814052
  H       -10.1652167309       10.9478778943       26.1175198525
  C        -3.9677902686       15.6860066836       38.5123947769
  N        -3.6640332022       16.9793213449       38.4936430738
  O        -2.7804208807       18.5851175190       37.1364591444
  S        -4.3847823519       14.9672349373       40.0794125236
  C        -3.4474154480       17.7594105325       39.6956916547
  H        -3.4878839545       18.7699561320       39.4119759144
  H        -4.2801999742       17.5142803173       40.3723736225
  C        -2.1035129681       17.3739133137       40.3523269274
  H        -1.3287931702       17.2851902929       39.6058346274
  H        -1.7359981265       18.2017330493       40.8973052162
  H        -2.1342112523       16.5143993954       40.9324954562
