352
i=
  H         2.9850645213        2.0822449030       13.4360213101
  C         3.5161508381        1.7317770062       12.5992726623
  H         3.4305620339        0.6536465276       12.5935048872
  C         2.8547011016        2.0798630017       11.2611452732
  C         4.9442141236        2.1570512141       12.8323081439
  C         3.8653173561        2.4347990905       10.2109137468
  H         2.1355742554        2.8600998013       11.2566270114
  H         2.2810700585        1.2197258945       10.9775222068
  H         5.6863222902        1.7999003283       12.1464297136
  H         5.2320595719        1.7580073867       13.8314287534
  H         5.0428783309        3.2305761353       12.8378982987
  C         4.4154346999        1.2392085680        9.5751576134
  H         3.2883907603        2.9571053894        9.4791239088
  H         4.5808280065        3.1999376659       10.6461969574
  C         5.0590842153        1.4502033575        8.1549220985
  H         3.6148952503        0.4885839797        9.3911514397
  H         5.0730377893        0.7480996921       10.3133589236
  C         6.3597410330        2.1548565167        8.2522544145
  H         4.4382865425        2.0479953876        7.5169772704
  H         5.0897504640        0.4750726693        7.7306320876
  C         7.5218039959        1.3950145417        8.9133128958
  H         6.7689784523        2.4275748733        7.2414892377
  H         6.2541561801        3.0674524770        8.8624262925
  C         8.7470378830        2.3343798888        9.2592559375
  H         7.8478337874        0.7111490930        8.1197154449
  H         7.2673525956        0.7496580245        9.7871840333
  C         8.3920850151        3.6202239920        9.9003919475
  C         9.3099958534        3.0290099505        8.0610034234
  C         9.7146323596        1.6376503277       10.2537126882
  C         8.6892706309        4.7174759291        9.1564988314
  C         7.8884955693        3.9234135275       11.2246899980
  C         9.1529814383        4.4087014739        7.9164966682
  C         9.8815243125        2.3966543051        6.9491140356
  H         9.3387987372        1.5976186878       11.2150800577
  H         9.9308202969        0.5881869317       10.0060421779
  C        11.1958148925        2.3275140435       10.2155054734
  S         8.4779535585        6.1704274122       10.0207989103
  C         7.9939269190        5.2988421917       11.3952793780
  H         7.7433555902        3.1283789831       11.8618564204
  C         9.5769305452        5.0595365553        6.7749643163
  H         9.9363206018        1.3601065805        6.9618937631
  C        10.2253356956        3.0266347469        5.8135807735
  H        11.0288125624        3.4054398268       10.2590185476
  H        11.7782699320        2.0303857883        9.3128982335
  C        12.0247207907        1.9858128373       11.4841680096
  C         7.7160583995        5.9305946208       12.7775836510
  C        10.1297846778        4.3700972983        5.6608842483
  H         9.5044696138        6.1528745458        6.7541472263
  C        10.6918161993        2.5686404859        4.5963371016
  H        12.9136027175        2.4775188056       11.4472128929
  H        12.2837074945        0.9273938472       11.7164348783
  C        11.2739304402        2.3909187324       12.7699541005
  C         7.7068400096        7.3687539024       12.9973911934
  C         7.2338924149        5.1153948250       13.8900126418
  C        10.6396781482        4.9996653374        4.3962775958
  C        10.9120420729        3.6127463662        3.7291146288
  S        10.9360978182        1.0129266487        3.9152261055
  H        10.7882927896        3.3428888340       12.5515788839
  H        10.6423001375        1.5415741475       12.8909780888
  C        12.1755498950        2.5636358323       14.0075168071
  N         7.9118842627        8.2839123965       12.0030659484
  C         7.3708563217        7.9481747420       14.2006299688
  C         6.9421531517        5.6756756809       15.1453285985
  H         7.2326074622        4.0634032479       13.8025271061
  C        11.8950948459        5.8455652830        4.6696638761
  C         9.6193967286        5.6830414147        3.5585225385
  C        11.4308219084        3.1611760358        2.4935228506
  C        11.3869305305        1.7908720308        2.4109141845
  H        11.8033653622        3.3508422041       14.5607595306
  H        13.1271379425        3.0210289269       13.7596537175
  C        12.2125960046        1.2672488037       14.8507980226
  S         7.7072567920        9.7777550682       12.5912672487
  N         7.5291975101        9.3777710959       14.1448494542
  C         6.9970634333        7.1888710168       15.3040726529
  H         6.5057344506        5.0376396450       15.9313761992
  H        11.5738329206        6.6742265213        5.2381019763
  H        12.2279916227        6.2695819159        3.7394248208
  C        13.1067517959        5.0625808319        5.4144833231
  H         9.2843111768        6.6148075793        4.0643409660
  H        10.0836470909        6.0948950652        2.6805922480
  C         8.4777355386        4.8115591411        3.1223309816
  H        11.9450617413        3.8489435562        1.8141018532
  C        11.8672901734        1.0239323926        1.2137777025
  H        11.2016529239        1.0532272598       15.1576654178
  H        12.6534541633        0.5054371211       14.2854985743
  C        13.1503700456        1.3607443985       16.0216525599
  C         6.8794084908        7.8694335481       16.5897634906
  H        12.7293856318        4.9528555201        6.4596723141
  H        13.1662822611        4.0623120400        4.9658326260
  C        14.4745540407        5.7776738820        5.4519097471
  H         8.1159533601        4.2814753859        3.9469023500
  H         8.8634803652        4.0429534438        2.4382042647
  C         7.3529796120        5.5399438478        2.4276426934
  C        11.8687289238       -0.3914078999        1.0546808407
  C        11.9937580578        1.7320761255       -0.0550179658
  H        14.0387214785        1.8576816202       15.5526945662
  H        13.5478836260        0.4416087853       16.4220737281
  C        12.6961562970        2.3435797834       17.0996314885
  H         6.9180641708        8.9813630093       16.4798783374
  C         6.6370459115        7.4507429801       17.8446526543
  H        14.6718750670        6.6327034551        6.1794763199
  H        14.5934990134        6.2459775126        4.4887722252
  C        15.5651754490        4.6997818522        5.5942953333
  H         7.0397216830        6.3544417638        3.0828956382
  H         7.6744885017        5.9603693317        1.4669534832
  C         6.2395433991        4.5586706008        2.1715389382
  N        11.5846918372       -1.3167653070        2.0950795792
  C        12.1733381656       -1.0921433544       -0.1007062234
  C        12.2514045322        1.0641871596       -1.2565640196
  H        11.8843320982        2.7935575809       -0.1171750404
  H        12.2313421546        3.2989601613       16.7806884881
  H        13.5212399894        2.7703890124       17.5459794758
  H        11.9915577593        1.8186999391       17.7978353831
  S         6.3396128590        5.8650254260       18.5275157837
  C         6.6559759028        8.4630798027       18.9041266097
  H        15.4427969164        4.0975234913        6.4950158739
  H        15.5667367313        4.0878768453        4.6729745120
  C        16.9463712499        5.3117193374        5.7442715935
  H         6.0331912979        4.0580335032        3.0758506193
  H         6.6017044746        3.8097110769        1.4797723525
  C         4.9384619258        5.2669527710        1.7540931520
  S        11.7866930074       -2.8255670156        1.5373206623
  N        12.2015193298       -2.4792028629        0.0595910147
  C        12.4333440312       -0.4069220231       -1.2884418408
  H        12.4610076707        1.6642753721       -2.1138846867
  C         6.1659831340        6.6585738360       20.1435358523
  N         6.3215872917        8.0155747369       20.1034981367
  O         6.8786239710        9.6807176497       18.7046531933
  H        17.5226189175        4.7514128263        5.0467525830
  H        16.9991123651        6.3358451511        5.4766637594
  C        17.5752840801        5.1807001297        7.1345595679
  H         5.2025934384        5.6753472582        0.7963499109
  H         4.2530448530        4.4397102909        1.6466947362
  C         4.2670083177        6.1681840283        2.7502563725
  C        12.7463107159       -1.1635179721       -2.4494381052
  S         5.5839597677        5.8927668203       21.6567875489
  C         6.3676548857        8.7966260360       21.3437240026
  H        16.9651179587        5.8328265921        7.8106236774
  H        17.5070612614        4.1767300829        7.3810325701
  C        19.0107247553        5.6770003519        7.1569693206
  H         4.8442181750        6.1610342908        3.6603117880
  H         3.2478359620        5.9412726246        2.8646363596
  C         4.4625875991        7.5692505029        2.2186888047
  H        12.7960841112       -2.2180943989       -2.3206084176
  C        13.2326547419       -0.6970117548       -3.6809953386
  H         5.6235253539        8.5240799417       22.0779482985
  H         6.2150145497        9.8522547817       21.1307373671
  C         7.7436985134        8.7373024418       22.0245620845
  H        19.4864681896        5.1744776258        7.9702758799
  H        18.9700028336        6.6892784140        7.2564447486
  C        19.8132741623        5.3963607901        5.9206346918
  H         5.5058313142        7.8038150616        2.2050532861
  H         4.2339893667        7.5444400112        1.2112765516
  C         3.4352972103        8.4927021505        2.8486173216
  S        13.6589477405        0.8977147043       -4.1725610201
  C        13.5578736264       -1.7590010843       -4.6835548511
  H         7.6176276576        9.1981069869       22.9594613430
  H         8.5549084390        9.2409643135       21.5143643606
  H         7.9919517609        7.7095071174       22.0870440470
  H        19.9967591068        4.3291534053        5.6890941002
  H        19.4472497278        5.9865035195        5.0775358813
  H        20.8314191459        5.8475675066        5.9823825047
  H         3.6565107285        9.5309838605        2.7256432317
  H         2.4109104495        8.3846584264        2.4670171835
  H         3.2251073563        8.1740146229        3.8405515168
  C        13.9851852072        0.2098796875       -5.7131553687
  N        13.9804190170       -1.1038757373       -5.7860943471
  O        13.4639109231       -2.9614101697       -4.5607885196
  S        14.4177902952        1.2276580171       -7.1318427236
  C        14.1662540359       -1.8330633636       -7.0576655326
  H        14.4820547956       -2.8606750417       -6.8454339033
  H        14.9711150868       -1.2984486700       -7.5995852808
  C        12.8116499769       -1.9697220218       -7.8943276042
  H        11.8298159351       -1.8645832286       -7.4186034132
  H        12.7692761426       -2.9293441432       -8.4259464893
  H        12.8386712573       -1.1859890996       -8.6462495535
  H        -2.5824323010       14.6220760927       15.6878393315
  C        -3.1409490465       14.0437611860       16.4082178138
  H        -4.0148131160       14.6384705006       16.7050764028
  C        -2.1189199066       13.7578100633       17.5521305905
  C        -3.4727788424       12.7210567612       15.6812087981
  C        -2.7635330310       13.1516582963       18.8011332557
  H        -1.3400481505       13.0739392907       17.1947146004
  H        -1.4381207472       14.6349995931       17.8180591559
  H        -4.2378144438       12.1666542118       16.1635110956
  H        -3.5747090821       12.8626445481       14.5815111982
  H        -2.5657408295       12.1080771778       15.7044073304
  C        -1.8171157695       12.5492158627       19.8420824881
  H        -3.3565859724       12.3775489620       18.3729092963
  H        -3.5618133701       13.7632395313       19.2228075865
  C        -2.4411817950       12.5944720942       21.1896713781
  H        -1.6298205375       11.5118749271       19.5472759976
  H        -0.9198978617       13.1186665407       19.7534087218
  C        -1.4863048730       12.1947634986       22.4092640951
  H        -3.3346177975       11.9825122090       21.1907312701
  H        -2.7489303688       13.7071620654       21.2507101400
  C        -0.1873451963       12.9997146305       22.3996953329
  H        -2.0533295860       12.4384174744       23.3521848149
  H        -1.3137774461       11.1404335868       22.5593263778
  C         1.0810289012       12.6046983875       23.3356448407
  H         0.1964802460       13.2330458492       21.4288272769
  H        -0.4868946571       13.9761858778       22.7540553705
  C         1.5151750659       11.2900260454       22.7177468795
  C         0.7696857455       11.8854924957       24.6453319152
  C         2.3042661016       13.6648279285       23.3820140906
  C         1.4221608662       10.1800067821       23.5306944924
  C         2.0620775614       10.9332081784       21.4531586356
  C         0.9618925006       10.5689368563       24.8100923622
  C         0.3786299670       12.5201987735       25.8674736660
  H         2.3185945163       14.2524634555       22.4497545836
  H         2.1639541228       14.4483905720       24.1546353034
  C         3.6274351465       12.8855703090       23.6781252880
  S         1.9929507217        8.7288011747       22.8015641344
  C         2.2473469313        9.5823829168       21.3169401574
  H         2.0085130229       11.7028232718       20.6340972898
  C         0.5844614984        9.8835538133       25.9373465594
  H         0.4066363230       13.5633016257       25.7507720871
  C         0.0222307768       11.8950374647       27.0137358206
  H         3.9400890852       12.4426970702       22.7415831711
  H         3.3682812639       12.1202159449       24.3557165086
  C         4.7900039152       13.7681457154       24.1845247972
  C         2.5657542488        8.9469058327       19.9548570652
  C         0.0520818215       10.5159720846       27.0625477426
  H         0.5983624107        8.8690848362       25.9253729489
  C        -0.3606289624       12.2791094486       28.3016136477
  H         5.3649397468       13.0092120706       24.6454437138
  H         4.5131051509       14.2938615936       25.0973968105
  C         5.5520257427       14.5822582764       23.1629288349
  C         2.7141390162        7.5641091411       19.7075016053
  C         2.7564340091        9.7892040053       18.7338170637
  C        -0.3549086867        9.8698614385       28.3359951331
  C        -0.6708227901       11.1715498472       29.0533682003
  S        -0.7765534798       13.7176340116       29.0351515391
  H         6.0935160005       15.4033171677       23.6726434535
  H         4.8174476342       15.1287216243       22.5613769778
  C         6.6824538823       13.8375862005       22.4969017409
  N         2.4681815074        6.6258094254       20.7313405974
  C         2.9227639255        6.9525780545       18.4703535213
  C         3.0015425442        9.2056077947       17.5122523185
  H         2.7820440336       10.9304851612       18.8463124585
  C         0.7962259537        9.2069539050       29.0775086873
  C        -1.6594089702        9.0269093841       28.0936016733
  C        -1.1243149208       11.5391139474       30.3239341286
  C        -1.2327032459       12.8819946849       30.4486742807
  H         7.4451298629       14.6307982717       22.4744711780
  H         6.9598285741       12.9378089351       23.0747122501
  C         6.3296511074       13.4924242669       21.0224180812
  S         2.6573586014        5.1218503109       20.1240955265
  N         2.8881436455        5.5827659820       18.5391906049
  C         3.1790009098        7.7387810602       17.3166490334
  H         3.1628191906        9.8038789077       16.6088272136
  H         1.0118658702        8.2992481240       28.5548009324
  H         0.2754370918        8.9467124196       29.9827827155
  C         2.0338205005       10.1053107440       29.3046977808
  H        -1.3547926942        8.1186387311       27.5370139114
  H        -2.0948499297        8.6312007470       28.9941077597
  C        -2.8014018358        9.7450091214       27.3990408982
  H        -1.2880697565       10.7770648680       31.0451711460
  C        -1.7193270158       13.5785804434       31.6538286543
  H         5.9672694504       14.4407725551       20.5471567826
  H         5.4933485888       12.8064156014       21.0904066299
  C         7.4767820089       12.9142761515       20.3074424751
  C         3.5079175591        7.1029976408       16.0724253666
  H         2.5022087165       10.4884105269       28.4362978197
  H         1.6524898621       10.9491346815       29.8891740145
  C         3.0661566712        9.3457850400       30.1300545215
  H        -2.6834134242        9.9982815882       26.3196578479
  H        -3.0477647200       10.6611969477       27.9049171385
  C        -4.0503205150        8.8086896972       27.3567995453
  C        -1.7699372744       15.0118563428       31.8746820215
  C        -2.0395526589       12.7925217521       32.8219277270
  H         8.4379036407       13.5188364744       20.4256848112
  H         7.6732985383       11.9897284611       20.7358698740
  C         7.3515575820       12.7878369508       18.8428597690
  H         3.9344033042        6.1171884728       16.1191877224
  C         3.7771805898        7.4823422649       14.8039557267
  H         3.3269636751        8.5151122071       29.4480427507
  H         2.7815123638        8.8250584869       31.0241460399
  C         4.2991852407       10.1926307119       30.5068925208
  H        -3.9405214921        8.0420281216       26.6222088555
  H        -4.1483945476        8.2287500199       28.2592383187
  C        -5.3396976715        9.5663322861       27.1836943352
  N        -1.3786674820       15.9344239613       31.0109351966
  C        -2.0273849756       15.5673632250       33.1164641176
  C        -2.3954433576       13.3427171705       34.0817951578
  H        -2.0541251355       11.7525442308       32.7229302701
  H         7.2880206806       13.7894519891       18.4372938727
  H         8.0969123996       12.2070481860       18.3651681945
  H         6.4190639290       12.2405415087       18.5679342404
  S         4.0576527096        9.0989281389       14.2252632713
  C         3.9979035200        6.4430384321       13.7466375217
  H         4.2010824004       11.1867348085       30.0267175374
  H         4.3587201157       10.4046561087       31.5910063154
  C         5.5142531791        9.4722250804       30.1233612054
  H        -5.2531740312       10.4273699066       27.8106542972
  H        -6.1412334163        8.9406418440       27.5723367500
  C        -5.6454898307        9.9289898872       25.7418536811
  S        -1.3577702579       17.4641613716       31.7472557390
  N        -1.9602095969       16.9444408136       33.1384124257
  C        -2.3406951951       14.8081349878       34.2760558024
  H        -2.5290617279       12.6474679163       34.9130367669
  C         4.3460200431        8.3309303307       12.6555603922
  N         4.4568674760        6.9804934482       12.6134110771
  O         3.8570395699        5.2200239895       13.9214987337
  H         6.3629448626       10.1291537967       30.2759154462
  H         5.4726115499        9.4160780208       29.0039354523
  C         5.7506470772        8.1885089747       30.9622327606
  H        -5.0628590235       10.7999857622       25.4750226371
  H        -5.5100851028        9.0827347123       25.0138091474
  C        -7.1523136273       10.3693782121       25.4971675945
  C        -2.6005026748       15.5740879940       35.5053351127
  S         4.6958653976        9.2670365466       11.1454779114
  C         4.5822986927        6.2075429958       11.3542952246
  H         6.4964459724        8.4360350984       31.6729655289
  H         4.9476929867        7.8979786524       31.6312344758
  C         6.4013231787        7.0590368303       30.0869813971
  H        -7.2119018068       10.7015514801       24.4481485740
  H        -7.4135963355       11.1854271320       26.1421411699
  C        -8.0297193599        9.1201821561       25.7516834370
  H        -2.5214722589       16.6483958472       35.4861352110
  C        -3.1365890186       15.2452172125       36.7035693489
  H         5.3806971118        6.4517465777       10.6471891422
  H         4.9116073688        5.1937936898       11.6656355032
  C         3.2451420994        6.2411139454       10.6561584409
  H         7.3283248685        7.3057671425       29.6666265202
  H         5.7737450146        6.9605902275       29.2483529058
  C         6.5668318427        5.7995767180       30.9051772152
  H        -7.5349177576        8.2899700897       25.2607842133
  H        -8.2184929509        8.8847256353       26.8142802454
  C        -9.3331348683        9.2501508268       25.0381858529
  S        -3.7261569592       13.6713982789       37.1615488841
  C        -3.1754847561       16.1867650855       37.8390393880
  H         3.3475491097        6.7806809817        9.7138420274
  H         2.7585629759        5.2801759043       10.5707403768
  H         2.5244620227        6.9011192724       11.1973344888
  H         6.1889765643        5.7775934656       31.9372240330
  H         7.5956443789        5.5187169856       31.1016489547
  H         6.1428413083        4.9525656990       30.3713136804
  H        -9.6079917014       10.2935622015       24.8537047023
  H       -10.1943771146        8.8750508969       25.5449052114
  H        -9.2459271047        8.8662942607       24.0194538511
  C        -4.1841528260       14.4103909409       38.6747105781
  N        -3.7362803661       15.6428784049       38.9119276338
  O        -2.7690729935       17.3894224736       37.7438483713
  S        -5.0454216528       13.5294358946       40.0028394337
  C        -4.1086138210       16.4519795026       40.0026824534
  H        -4.4997575308       17.3355925717       39.5690248172
  H        -4.8718506105       16.0686218663       40.6780795569
  C        -2.9080567921       16.9300962805       40.8734451186
  H        -1.9906999479       16.8753147197       40.3716778353
  H        -2.9924888115       18.0063167359       41.1608546891
  H        -2.8083698381       16.3197658425       41.7360115628
