352
i=
  H         4.5212593703        1.7546075248       11.9771580605
  C         3.7520017648        2.5510017301       12.0780898496
  H         4.2708390885        3.5482432610       12.0901337294
  C         2.8807623019        2.3848137616       10.8334455665
  C         3.0446595367        2.4901720570       13.3745697033
  C         3.6735077824        2.6652320582        9.5567326492
  H         1.9135288837        2.8605306678       10.9907279318
  H         2.5790799671        1.3509781203       10.7536076828
  H         3.6887449518        2.1429676186       14.1324834102
  H         2.2458724353        1.7548117190       13.2086161537
  H         2.5440291695        3.4718605635       13.7034991807
  C         4.6124567036        1.5047272343        9.1724158130
  H         2.9654448371        2.7624189033        8.7178713435
  H         4.2392194307        3.5977558894        9.5198587213
  C         5.4142010257        1.8124942145        7.9561194777
  H         3.8906041553        0.7670117381        8.9169844145
  H         5.3088350228        1.3131227327       10.0006725761
  C         6.6834976064        2.6621630233        8.1734189869
  H         4.7933285138        2.4189202689        7.3246905782
  H         5.6309854044        1.0002842840        7.3175473171
  C         7.8033608701        1.8295214691        8.8228183299
  H         7.1433644697        2.9940203842        7.2244266455
  H         6.3494944352        3.3766270624        8.8507743949
  C         9.0651132062        2.6136363198        9.1093094106
  H         7.9943161910        0.9514690831        8.1661877830
  H         7.4249782943        1.5127328885        9.8209624273
  C         8.7302481363        4.0144970429        9.8370365122
  C         9.6221894275        3.3739315284        7.9444713016
  C        10.1697776093        1.9507395310        9.9058494981
  C         9.0696145678        5.1061893862        9.1129704504
  C         8.0657512994        4.3289226061       11.0613043082
  C         9.5488552968        4.7117665164        7.8890816973
  C        10.1364710316        2.7106108596        6.7801815093
  H         9.8368678074        1.7673902343       10.9324700830
  H        10.2527394642        1.0084385155        9.3356187298
  C        11.4398850484        2.7773619191       10.0857923163
  S         8.6130725718        6.5566504153        9.9022106529
  C         8.1271662511        5.7004005591       11.3098157689
  H         7.8375751980        3.6082080846       11.8005957071
  C         9.8649523171        5.3452206841        6.7590471286
  H        10.1389108801        1.6761189730        6.9281409926
  C        10.4752676893        3.4193262434        5.6596836562
  H        11.2193649070        3.7753841575       10.2143136544
  H        12.0727142044        2.8727769391        9.2235893262
  C        12.2173736476        2.3402423635       11.2685726348
  C         7.6743050910        6.4386202017       12.5002130701
  C        10.2939315899        4.7708565681        5.5975366440
  H         9.6017112472        6.3890510783        6.5638894667
  C        10.8384213613        3.1018143661        4.3866061090
  H        13.2685797498        2.7457740803       11.1478411001
  H        12.3426358025        1.3159347333       11.3186936918
  C        11.7257305993        3.0161776285       12.6129995251
  C         7.6220311404        7.8432745376       12.7730169517
  C         7.3939654402        5.5750301091       13.7331208497
  C        10.6264972427        5.5285309915        4.3501502160
  C        10.8579545890        4.2095914993        3.5740574770
  S        10.9955449177        1.5584614951        3.5650259041
  H        12.4340769130        3.7440516542       12.9735670613
  H        10.8479891213        3.5602412000       12.2941409745
  C        11.3467361495        2.0779443862       13.8076636587
  N         7.9782991715        8.8344814467       11.8428670289
  C         7.4539366415        8.3343167256       14.0265322330
  C         7.0551113700        6.1524384920       14.9451215389
  H         7.2423176488        4.5052064609       13.7016687088
  C        11.9763270901        6.3687716293        4.4074582205
  C         9.4894958907        6.3299920498        3.7783364159
  C        11.2491126545        3.8266056864        2.3087407161
  C        11.3321566406        2.4396458925        2.1286194389
  H        11.2591536132        1.0512171821       13.5295342453
  H        10.3956177238        2.3629381156       14.0505113147
  C        12.4061542829        2.2059820183       14.9236999280
  S         8.0477239850       10.2905272859       12.6708720835
  N         7.5724165862        9.7063626638       14.1004717131
  C         7.1271217896        7.5800192714       15.1660978207
  H         6.6500196575        5.6051042906       15.8204498043
  H        11.8809722931        7.2276603853        5.1256466975
  H        12.0763475212        6.9065223310        3.4848174035
  C        13.2341272982        5.6419238362        4.7790592864
  H         9.1663723731        7.0728049979        4.4651190104
  H         9.9479734287        6.8700685235        2.9363772535
  C         8.3500142654        5.4689254787        3.2518727427
  H        11.3249141494        4.5931394476        1.6160935757
  C        11.7375932344        1.7280682822        0.8555035327
  H        13.3887107390        2.0351791456       14.5144503214
  H        12.3125821374        3.2063736243       15.3466059474
  C        12.0290840779        1.1430036294       15.9481694872
  C         6.8234895711        8.1582220999       16.4092209483
  H        13.0151737512        4.9662979519        5.6126875029
  H        13.4740945170        5.0227359043        3.8892692391
  C        14.3989743389        6.5390638008        5.0846050271
  H         8.0945836418        4.7286796095        4.0897021479
  H         8.5502447864        4.8027480546        2.4036492349
  C         7.0920400093        6.2877208549        3.0185377929
  C        11.6948123533        0.3163776329        0.6783170014
  C        11.9219353886        2.4743854835       -0.4204824542
  H        12.2362633760        0.2046177016       15.4478747391
  H        10.9654987392        1.1714511404       16.1915683167
  C        12.8436711277        1.2446492297       17.2188039829
  H         6.9072717206        9.2370194970       16.3234446429
  C         6.4218990774        7.6980230986       17.6608068350
  H        14.1160973758        7.5416543122        5.5226249238
  H        14.9142359635        6.7514403499        4.1506300915
  C        15.3294227083        5.8284708956        6.0460264559
  H         6.7058827678        6.7451759085        3.9612976392
  H         7.3082305898        7.0750352022        2.3449652093
  C         6.0635765905        5.4023653749        2.3375766264
  N        11.4282269402       -0.6391586350        1.6723467571
  C        12.1738826208       -0.3061350289       -0.4926397961
  C        12.1307845874        1.8754452843       -1.6983849200
  H        11.8993687414        3.5779328538       -0.3350589646
  H        13.4264405410        2.1943762970       17.2057767032
  H        13.6809237106        0.5775098814       17.4228366100
  H        12.1460337491        1.3895671989       18.0423626074
  S         5.9678467657        6.0965763714       18.1773191362
  C         6.3259920220        8.7593675265       18.7021347105
  H        14.7858263220        5.7162660958        6.9691600738
  H        15.6413907299        4.8759324217        5.6893292652
  C        16.6110128585        6.4813351336        6.4737491424
  H         5.5208114110        5.0535048461        3.1819600058
  H         6.4543834731        4.5161267662        1.9197214729
  C         5.1193117376        6.1992631157        1.4697614441
  S        11.5263550847       -2.1145114256        1.0115534605
  N        12.0854732547       -1.6900113995       -0.4506685243
  C        12.3254043144        0.3897477362       -1.6591056037
  H        12.2881354481        2.5640529485       -2.5788066813
  C         5.8708059560        6.8632291126       19.7540044113
  N         5.9635009744        8.2071495902       19.8249313974
  O         6.6236096386        9.9073330982       18.5383556107
  H        16.9743549112        7.1561199278        5.6923568457
  H        16.2762705125        7.1341260662        7.3017705677
  C        17.7332290253        5.5193740855        6.9864128254
  H         5.7555647355        6.7516142187        0.7611584908
  H         4.4535675729        5.5432981247        0.8185231895
  C         4.3834823464        7.2590806844        2.3155389175
  C        12.5962413193       -0.4083925494       -2.8076180660
  S         5.3873944987        6.1024361612       21.2610011678
  C         6.1043863806        9.0893756626       21.0122149676
  H        17.3806886613        5.2847476833        8.0082956816
  H        17.6706128169        4.6606939186        6.4580624142
  C        19.1437481295        6.0580564869        6.9810580489
  H         5.1294024029        7.8651875121        2.8463359783
  H         3.7793612697        6.8728532951        3.1126066796
  C         3.4807126549        8.1753506679        1.4890483316
  H        12.4200450618       -1.4673367205       -2.7212967827
  C        13.0710925921       -0.0495463926       -4.0425313098
  H         5.4029793245        8.6403622861       21.7661940362
  H         5.6895749835       10.0583378967       20.8231384096
  C         7.5308604152        9.1235671241       21.5681105789
  H        19.8712935775        5.4919839077        7.5737912614
  H        19.1395476542        7.0006634508        7.5553425570
  C        19.6434416760        6.3471781812        5.5825155190
  H         3.9173838153        8.4011551313        0.5875426765
  H         2.5764579255        7.6220216735        1.1952979749
  C         3.0990044654        9.4492601626        2.2851926574
  S        13.3001054284        1.5378281785       -4.5917727539
  C        13.2275631075       -1.0870236270       -5.0320648792
  H         8.1964231897        8.3349398357       21.1926530273
  H         7.4866729512        9.0745902983       22.7033738481
  H         8.0229880052       10.0426216595       21.3551404308
  H        19.4169592839        5.4721927836        5.0451308949
  H        19.1063165597        7.1235799230        4.9781466262
  H        20.7095574231        6.4209778608        5.3227117791
  H         2.5645674579        9.0527897270        3.1290448416
  H         3.9626664580       10.0215350330        2.7191745737
  H         2.4728242935       10.2597411778        1.7683053000
  C        13.6709548078        0.7528883833       -6.1631234322
  N        13.7054403183       -0.5759254535       -6.1307005298
  O        13.0773576652       -2.2576032560       -4.8486426088
  S        14.3024332557        1.6482057273       -7.5834786176
  C        13.9815386936       -1.4317261012       -7.2474143720
  H        14.2817682192       -2.3997990462       -7.0075262587
  H        14.8922945233       -1.0892623772       -7.7387335928
  C        12.7585485995       -1.5625254438       -8.1705864801
  H        11.8759144779       -1.7543564453       -7.6430761637
  H        12.8447963315       -2.2127820327       -8.9839527583
  H        12.7030328698       -0.5370950167       -8.4835872474
  H        -0.7836726025       14.0568495448       15.9707823327
  C        -1.8736089733       14.1828225007       16.0904473418
  H        -1.8798891059       15.1498986978       15.5589969533
  C        -2.3090265230       14.4516742498       17.4753135417
  C        -2.6612602065       13.1072743096       15.3136655187
  C        -2.2793005556       13.2704676152       18.4453865392
  H        -1.5093959087       15.1421733249       17.7534276240
  H        -3.2664252534       14.8918584762       17.4984016558
  H        -2.1736225033       12.1581932867       15.2868339402
  H        -3.7001432912       12.8832383074       15.5269277772
  H        -2.5509425691       13.3803768051       14.2538332107
  C        -1.2641698010       13.3117166457       19.5911415985
  H        -1.9503646608       12.4950740506       17.7853649878
  H        -3.2642446781       12.9485671315       18.7363843027
  C        -1.9823686856       13.2512880684       20.9483833317
  H        -0.5321738578       12.5731695939       19.6348847812
  H        -0.6616180693       14.2561141286       19.5028362726
  C        -1.1575526711       12.8915631329       22.2125435419
  H        -2.8182596363       12.5808918270       21.0122014565
  H        -2.5073780967       14.2438798304       20.9742042089
  C         0.1220612671       13.6944406538       22.4001041467
  H        -1.7951144028       12.8548161971       23.0910272471
  H        -0.8863252635       11.8890628752       21.9567052871
  C         1.2829337421       12.9580821523       23.2324685004
  H         0.4768503556       14.3498569840       21.6430435502
  H        -0.2559346690       14.4333601819       23.0211694186
  C         1.6625204322       11.6344498638       22.4858729762
  C         0.8119589287       12.1315216812       24.3994957609
  C         2.5451594395       13.8503540890       23.5792131294
  C         1.4692333623       10.4927096203       23.2093801958
  C         2.1546695534       11.2457403773       21.2031396432
  C         0.8946269016       10.7530450685       24.4541945396
  C         0.1327119424       12.6964591863       25.4544322123
  H         2.6560883073       14.7328087812       22.9903241830
  H         2.3257977918       14.2181017553       24.6056911074
  C         3.8646940148       13.1002407900       23.6539302254
  S         1.9170074514        9.0226882462       22.4257924822
  C         2.2718160614        9.9058533541       20.9902535752
  H         2.1595708333       12.0441969884       20.4576392284
  C         0.4963890933       10.1114614129       25.6061998827
  H        -0.0737675623       13.7603848085       25.4214727674
  C        -0.2370283504       12.0388877567       26.5973023961
  H         4.0815158162       12.5207563349       22.7773461576
  H         3.8416345956       12.4784091078       24.5616316984
  C         5.0754435224       13.9561495434       23.8983903125
  C         2.4860367881        9.2457102520       19.6748395642
  C        -0.1098314924       10.7009962292       26.7268556151
  H         0.5664710775        9.0004940392       25.6838377981
  C        -0.5719788702       12.4750784301       27.8967921030
  H         5.9816070417       13.3598416051       24.0740025321
  H         4.8303355672       14.5150774958       24.8445071129
  C         5.3944160903       14.8303605508       22.6818367384
  C         2.3604639756        7.8303844429       19.4061194736
  C         2.9713549475       10.0695868329       18.5752038384
  C        -0.5381836520        9.9869691856       27.9667556345
  C        -0.6709822084       11.3629537100       28.6857048952
  S        -0.8468706649       13.9521319299       28.7190621240
  H         6.2247638153       15.4875045563       22.9340836951
  H         4.6046359730       15.4320422773       22.2817335582
  C         5.9240498558       14.0199287143       21.5047340985
  N         2.0084850942        6.7920447497       20.3057084430
  C         2.7397769024        7.3360638673       18.2268954911
  C         3.2806929660        9.5402148267       17.3381683444
  H         3.1403038672       11.1135962159       18.6856249517
  C         0.6365409802        9.1879166154       28.5838198006
  C        -1.8501943739        9.2436356413       27.6904054364
  C        -0.9487715997       11.7578129045       29.9993207390
  C        -1.1239322758       13.0966849613       30.1846272223
  H         6.9419609163       14.3029799183       21.2396029179
  H         6.1609271398       13.0579884241       21.9079068086
  C         5.0747124297       13.9408951148       20.1929742194
  S         2.0683230625        5.4726968843       19.4806522251
  N         2.4398663291        6.0063204449       18.0521777741
  C         3.0558825861        8.1081311561       17.0778061160
  H         3.7829724878       10.1707670523       16.6110133918
  H         1.0663812249        8.4119752863       27.9299068181
  H         0.3322008233        8.8068038887       29.5763885731
  C         1.8097993780       10.0471041854       28.9958258577
  H        -1.7868608562        8.6901745991       26.7789026093
  H        -2.0698402230        8.5641023939       28.4769783472
  C        -3.0082036232       10.2421112504       27.5493609816
  H        -0.9902328367       10.9869281268       30.7700182828
  C        -1.3978872536       13.7807611945       31.5764506487
  H         5.0771207960       14.9676198038       19.8445265825
  H         3.9981336629       13.7640715090       20.3858748804
  C         5.6336460469       12.9567042088       19.1819433014
  C         3.2795905020        7.4390055882       15.8426432750
  H         2.0479696578       10.7446176074       28.2017877002
  H         1.5334988615       10.6973270743       29.8023639546
  C         3.0181846577        9.2609902402       29.3001281261
  H        -2.8186988153       11.0527614198       26.8362421565
  H        -3.0887511792       10.7303038917       28.5380770778
  C        -4.2686288408        9.4683733766       27.2570922910
  C        -1.4810652160       15.1586646658       31.7366366361
  C        -1.5576958802       12.9815740391       32.8133152959
  H         5.4626971135       11.9588556772       19.5715406324
  H         5.1219939213       12.9276886298       18.1963834575
  C         7.0899888156       13.0139316282       18.8499789639
  H         3.2212890892        6.3682367086       15.8819577933
  C         3.7953682977        7.8558308249       14.6432248544
  H         3.5137105408        8.8542835616       28.4209189828
  H         2.7293794473        8.4086953960       29.9508488917
  C         4.1042896947       10.1988435708       29.9782975291
  H        -4.2014488411        8.8292615684       26.3782001470
  H        -4.6034279069        8.7826083733       28.0965341853
  C        -5.3860925439       10.3504601054       26.8459384711
  N        -1.3305568624       16.0966940361       30.7109238736
  C        -1.8311636327       15.7789868869       32.9469194355
  C        -1.9436474800       13.5841669161       34.0483717643
  H        -1.1213471659       12.0344218596       32.9269577135
  H         7.2951672240       14.0178860459       18.6643025327
  H         7.6159534366       12.5567978714       19.7361673166
  H         7.2736315069       12.4583594072       17.8864572068
  S         4.1111272761        9.4758938704       14.1254301007
  C         3.9551140632        6.9155681436       13.5967225936
  H         4.1698142761       11.2228913792       29.6109001577
  H         3.6807194151       10.4654574866       30.9372215625
  C         5.5258416045        9.6803498246       30.1969077985
  H        -5.3620977371       11.3437048907       27.2233150395
  H        -6.2762421344        9.9872011377       27.2285078749
  C        -5.4803183554       10.4102163726       25.2590027897
  S        -1.5278744180       17.5394012276       31.3006711042
  N        -1.8217172460       17.1837133000       32.9013277578
  C        -2.0968846605       15.0665296945       34.1457107051
  H        -2.0440556344       12.9515248561       34.9207656339
  C         4.4225066550        8.8214501544       12.5281929678
  N         4.3157693898        7.4742417512       12.4239676432
  O         3.9179096678        5.7509312272       13.8718509123
  H         6.1251321993       10.5836044435       30.4478867999
  H         5.9712649911        9.4146298435       29.2569177309
  C         5.6603949207        8.5350766412       31.2608431184
  H        -4.6194601416       10.8990246383       24.9588761158
  H        -5.5170665085        9.3682784861       24.8527029957
  C        -6.5706629994       11.2676292408       24.7604928533
  C        -2.3464096156       15.7670956172       35.3551833103
  S         4.7318108673        9.7108852645       11.0533632239
  C         4.4779867120        6.5556236570       11.2152002972
  H         6.4210586894        8.9254709450       31.8942263221
  H         4.8026453814        8.4885090936       31.9684664861
  C         6.1318366367        7.1521699688       30.8552927576
  H        -6.2286892470       11.6826642524       23.7401834458
  H        -6.6473717169       12.0957922034       25.4137799325
  C        -7.9851634897       10.5863039186       24.5973499007
  H        -2.0703732738       16.8548955613       35.3783511902
  C        -2.9120644561       15.3433519575       36.5379682668
  H         5.1871440400        7.0365030042       10.6045171899
  H         4.8598165342        5.6609237548       11.5391133348
  C         3.0949221219        6.2914514268       10.5752118442
  H         5.4138247369        6.4104693242       31.1463992589
  H         6.9609797386        6.9225159268       31.5617985668
  C         6.6270746284        6.8355071070       29.4543249598
  H        -8.4436140479       10.9901199795       23.6733554350
  H        -7.7653890848        9.5322324704       24.3907448164
  C        -8.8401705510       10.7948684784       25.8907778405
  S        -3.6814845011       13.8001966989       36.7746121367
  C        -2.9171037577       16.2332687362       37.6717026388
  H         3.0230823755        5.6992947833        9.6532180448
  H         2.5497886491        5.9021961818       11.4017427846
  H         2.5623995826        7.1693011662       10.3408400953
  H         6.0266562854        7.2101301527       28.6582578182
  H         6.7497927582        5.7973895446       29.1404740043
  H         7.4816335251        7.4064791706       29.1657712915
  H        -9.8784302553       10.7026473660       25.6132648854
  H        -8.6565253635       11.7349975085       26.3890749182
  H        -8.7445154658        9.9087842434       26.5466660291
  C        -4.1396267427       14.3925779844       38.3627923319
  N        -3.7424725729       15.6835530189       38.6017930223
  O        -2.4726162383       17.3839559980       37.6775222393
  S        -4.8660808621       13.4244046474       39.6479443650
  C        -3.8928454504       16.3245786354       39.9135600817
  H        -4.0657403502       17.3937125907       39.8054095984
  H        -4.8167397102       16.0082318412       40.3873811919
  C        -2.7988834029       16.1337421223       40.9034701652
  H        -2.7330182798       16.9352447911       41.6815542668
  H        -3.0262154946       15.1842271860       41.4009650574
  H        -1.8415868591       15.9473254438       40.4454071165
