352
i=
  H         4.9649489805        1.9123337424       12.8757847241
  C         4.2832836744        2.7228174417       12.9512964318
  H         4.8617870823        3.6241964552       13.1790896956
  C         3.4817345893        3.0196983179       11.7210766407
  C         3.3301441068        2.5180956941       14.1802291723
  C         4.2626336686        3.1663644546       10.3882523163
  H         2.9889053397        3.9796852181       12.0008889869
  H         2.6633084316        2.2683920532       11.6205303103
  H         2.7625773897        3.4263643686       14.4210913892
  H         3.9045691435        2.3739560562       15.0407541112
  H         2.6489281545        1.7168125333       13.9099977375
  C         4.6579564988        1.8312960023        9.8410836479
  H         3.4718656495        3.5499227941        9.7550137952
  H         5.0974153816        3.8232493552       10.5685577467
  C         5.2669337951        2.0029401420        8.4688646249
  H         3.7833708275        1.2418534469        9.7920787059
  H         5.3342951685        1.3387799491       10.4474778139
  C         6.6674907260        2.7126883561        8.4525164162
  H         4.5755113849        2.4905673032        7.7352259630
  H         5.3292808205        0.9982841036        8.0470818462
  C         7.8715935742        1.9739707447        9.0793810100
  H         7.0133891744        2.9392802758        7.3952812310
  H         6.4493212757        3.6825199446        8.9644322890
  C         9.1442759289        2.8101486506        9.2493405808
  H         8.0719996560        1.2263040822        8.3405750915
  H         7.7176927178        1.4423642391       10.0188895915
  C         8.6666341711        4.1576313980        9.9291185256
  C         9.4997330690        3.4771175444        7.9612872341
  C        10.2030484126        2.1226819210       10.0382375061
  C         8.9688011728        5.2642784268        9.1245369067
  C         8.0707623096        4.5422110528       11.1644479189
  C         9.4296423956        4.8280034710        7.9381323410
  C        10.0074514785        2.8746827631        6.8074003506
  H         9.6927075828        1.8190884542       10.9393749598
  H        10.5527042788        1.2119681170        9.5184716777
  C        11.4124267891        2.9796967345       10.3252632867
  S         8.5670058966        6.7483205194        9.8136539681
  C         8.0245946398        5.8925677870       11.2568180364
  H         7.7859011320        3.8312233554       11.9062501038
  C         9.8543423548        5.4413271508        6.7808309585
  H         9.9814304836        1.7817371686        6.8090014353
  C        10.3853607658        3.5003201370        5.6875950640
  H        11.1128248305        3.9301108853       10.8305596974
  H        11.8411768887        3.2233180245        9.3724357065
  C        12.3840023175        2.3495497316       11.2760154565
  C         7.5529759551        6.6164059148       12.5286320266
  C        10.2822231471        4.8704770692        5.5562726229
  H         9.7546187422        6.4821001378        6.8959678373
  C        10.7502299896        3.1325067404        4.3862687928
  H        13.3496790834        2.9152634151       11.2560560072
  H        12.7358764925        1.4055167891       10.9088742438
  C        12.0338898199        2.3541872949       12.7810529219
  C         7.5094518137        8.0023769230       12.8183846272
  C         7.1739586999        5.7290084315       13.7012244931
  C        10.6285238298        5.5553902287        4.2910468121
  C        10.8519910445        4.2595889376        3.5494045240
  S        11.0520212735        1.6506402406        3.6181608593
  H        11.7411857506        3.3495351053       13.0923858421
  H        11.2172031954        1.6412278271       12.9724355987
  C        13.2827929937        2.1272699532       13.5171646650
  N         7.7530266797        8.9809976665       11.8490714412
  C         7.2830794513        8.5228810981       14.0518177008
  C         6.9230715827        6.2684939346       14.9396601858
  H         7.1991994965        4.6560860260       13.5912024109
  C        11.9287887614        6.3957906433        4.5086554342
  C         9.4437479385        6.3519607253        3.6854240434
  C        11.2223336270        3.8159468894        2.2145048198
  C        11.3828793688        2.4396963329        2.1549275887
  H        13.7762294303        2.9948678578       13.8159879028
  H        14.0357495900        1.6043975141       12.9224894310
  C        13.0510629255        1.1914346155       14.7442560659
  S         7.9377468319       10.4098021423       12.5751307536
  N         7.5241015914        9.8873246516       14.0196943394
  C         6.9979281457        7.7668147594       15.1877001185
  H         6.7084106565        5.6141453051       15.7474531369
  H        11.6116039160        7.3565974193        4.8927926889
  H        12.4277036356        6.7274934965        3.6001164734
  C        12.9241818143        5.5713473675        5.4359491750
  H         8.9533662519        6.9525559415        4.3689951150
  H         9.8144526300        7.0698800615        2.9931735040
  C         8.2376673814        5.4863625440        3.1684930454
  H        11.2933054583        4.5694921365        1.4073112156
  C        11.5865945545        1.6936636669        0.8814358988
  H        12.4226781817        0.2897245329       14.4509475972
  H        14.1064117768        0.8050901037       14.9662880274
  C        12.3198240460        1.8785344997       15.8922510093
  C         6.7340803454        8.4541070048       16.4444991175
  H        12.4917427378        5.7691821526        6.4502952378
  H        12.8823701216        4.5811397251        5.0961120031
  C        14.3581917546        6.1723157459        5.5234407236
  H         7.8729156555        4.9746311528        4.0587529282
  H         8.5396168054        4.7345532101        2.4256895003
  C         7.3343807741        6.4085984932        2.3835769710
  C        11.7320600040        0.2946088365        0.7870022078
  C        11.7119860044        2.4445524949       -0.4006757508
  H        11.6322013510        1.1382580674       16.3041233228
  H        11.6113788612        2.6267406308       15.4987310349
  C        13.1740788817        2.5316198058       17.0154788512
  H         6.5818307053        9.5420780289       16.3515357484
  C         6.4777977877        7.9720342511       17.6960737396
  H        14.3009803374        7.2008583702        5.8904389068
  H        14.7271894181        6.2693369078        4.4994893398
  C        15.2163070849        5.2343580223        6.3365466336
  H         7.1267428914        7.2400044259        3.0272029253
  H         7.9674989889        6.8536620209        1.6048167206
  C         5.9796430901        5.8612119714        2.0335979473
  N        11.6624986024       -0.6747288821        1.8470717460
  C        12.0347788664       -0.3304139009       -0.4174628051
  C        12.0352201776        1.7579036820       -1.5847424424
  H        11.3176480660        3.4440078698       -0.3692732602
  H        13.9354413048        3.0234868394       16.5581461742
  H        13.5097559753        1.7503189617       17.7300733563
  H        12.5874011627        3.3178906574       17.4701368139
  S         6.2769662154        6.3293940787       18.1775799368
  C         6.4426007796        8.9829157593       18.8306025267
  H        14.6217214780        4.9312160224        7.2339829733
  H        15.4914126830        4.3162860460        5.8511807891
  C        16.4260881281        6.0853564676        6.7360281125
  H         5.3081661256        5.5779655530        2.8402013262
  H         6.0947309105        5.0093747797        1.3883394827
  C         5.1737148370        6.7932982742        1.1124514025
  S        11.8417843332       -2.1933156036        1.1588439964
  N        12.0676778744       -1.7241620590       -0.3748813197
  C        12.2764088361        0.3251425760       -1.6062875061
  H        12.0748251113        2.3693632078       -2.5084244219
  C         6.0372609468        7.0049160049       19.7957921901
  N         6.0899349471        8.3143479793       19.9534716944
  O         6.7272846404       10.1869011823       18.6602202996
  H        16.9476613820        6.6088414457        5.9828875191
  H        15.9593707587        6.9063787090        7.3291764924
  C        17.5614768502        5.3820105569        7.5577437551
  H         5.7196478979        7.1652872364        0.2929305569
  H         4.4141572774        6.1289711225        0.6876852033
  C         4.5904621986        7.8679310856        1.9848342314
  C        12.5554953119       -0.4306387921       -2.7309245088
  S         5.6849970650        6.0441360277       21.2323634818
  C         5.9721421403        8.9869839092       21.2571330235
  H        17.1934291510        5.0470219012        8.5059616937
  H        17.6895671128        4.4483185783        7.2164122125
  C        18.9376543787        6.0000389997        7.5974471260
  H         5.2399329925        8.2908301090        2.7478903629
  H         3.7404946154        7.3787763620        2.6044823354
  C         4.0350192997        8.9646185822        1.1014927769
  H        12.2279923254       -1.4708797461       -2.6409733503
  C        13.0073171964       -0.1697265883       -4.0592958024
  H         5.1397686974        8.7641530469       21.8944668589
  H         5.7991497911        9.9937261770       20.9464865943
  C         7.3074304235        9.0933097696       21.9407803665
  H        19.3403499412        5.5018255583        8.3875646781
  H        18.8329019509        7.0542336871        7.7201139895
  C        19.7041929869        5.8808001840        6.2830392450
  H         4.9979408258        9.3898617266        0.7226189384
  H         3.5494858481        8.5067630291        0.2335908191
  C         3.2410028830       10.0835504059        1.8454723013
  S        13.5009370547        1.4142243133       -4.5950767710
  C        13.1739619205       -1.2653924458       -5.0302719831
  H         7.2411269669        8.4739209854       22.8430375801
  H         7.3992006091       10.0869859028       22.2406960082
  H         8.1150404622        8.7655630064       21.2508308968
  H        19.7005553863        4.8955209202        5.8388092958
  H        19.3438564094        6.5737660193        5.5110002379
  H        20.7593515173        6.0695686631        6.4946582175
  H         3.9316670185       10.5073019200        2.6759146306
  H         2.9526847296       10.7249459393        1.0506311610
  H         2.3430467820        9.7096861723        2.3319875331
  C        14.0868408406        0.6491730420       -6.0194816415
  N        13.8609435196       -0.6968669166       -6.0824300893
  O        13.0128875647       -2.4250364553       -4.7924121062
  S        14.8664008140        1.4886414083       -7.3442879206
  C        14.0702872336       -1.4938336449       -7.2793530791
  H        14.2011117571       -2.5818771773       -6.9262105325
  H        14.9226246882       -1.2212444936       -7.7904704202
  C        12.7729901342       -1.4828161725       -8.1128940084
  H        12.8231360925       -0.6117306646       -8.7796081391
  H        11.9320608990       -1.3897281141       -7.4726881670
  H        12.5658261262       -2.4241774425       -8.6803094546
  H        -3.6399427336       14.6800056932       16.4030231391
  C        -3.2721801374       13.6740690338       16.3803287555
  H        -4.1277782233       13.0704361342       16.5840971981
  C        -2.2865132801       13.5982179823       17.4961807757
  C        -2.7296903256       13.2417676010       15.0247260281
  C        -2.9093326477       14.1170538913       18.7870305364
  H        -1.9596736220       12.5340313446       17.5267944241
  H        -1.4567454244       14.2400575862       17.3244921078
  H        -2.3180790734       12.2335192057       15.0975285545
  H        -3.5026734285       13.3112406783       14.2225499353
  H        -1.8067814675       13.8099339559       14.7770146986
  C        -1.8169580023       14.1741191816       19.8282830286
  H        -3.6486909457       13.4077803771       19.0666230903
  H        -3.5533724146       15.0386770240       18.6595896579
  C        -2.3206470258       13.8612917470       21.2529569491
  H        -0.9029066925       13.6221655868       19.5937125901
  H        -1.4545332266       15.2134018850       19.8726604089
  C        -1.3467651074       13.0945614251       22.1505923531
  H        -3.2233380895       13.2217636033       21.2531168711
  H        -2.7649160641       14.7188335842       21.7607624921
  C        -0.1837463872       13.9404094789       22.7649322003
  H        -1.7797029438       12.5987005537       23.0481702935
  H        -1.0432726600       12.3235930100       21.4729724470
  C         0.8750631774       13.0739106049       23.4947998869
  H         0.3466825680       14.6213555121       22.0640693871
  H        -0.5586845646       14.5690549688       23.5119541966
  C         1.1994109326       11.7135057070       22.8011296533
  C         0.3856606771       12.3858977012       24.7638628709
  C         2.2471328288       13.8657951649       23.6990020585
  C         1.0552717168       10.6050360744       23.5867892683
  C         1.7299960689       11.3843285331       21.5764437439
  C         0.4798158455       11.0157315490       24.8280747564
  C        -0.0925297404       12.9486616901       25.8752901045
  H         2.6779963348       14.3133133789       22.7500799391
  H         2.0603065568       14.7030326113       24.3914331176
  C         3.3864741693       13.1183457199       24.2655247313
  S         1.5787576491        9.1292847128       22.8817624008
  C         2.0083202075       10.0234814691       21.4770703135
  H         1.8339106647       12.1851685700       20.8283265531
  C         0.1064626708       10.3211039337       25.9163897725
  H        -0.1532666230       14.0343111091       25.8806144211
  C        -0.3812076871       12.2621591679       27.0486815904
  H         3.5446979762       12.4028470647       23.4406819290
  H         3.0271355619       12.5228304130       25.1464768135
  C         4.6366827532       13.8465983406       24.6005872283
  C         2.3709080862        9.4247970212       20.1547719454
  C        -0.3385161091       10.9381238711       27.1074380016
  H         0.0038667380        9.2884194887       26.0041030523
  C        -0.8306714534       12.5920279979       28.3193230114
  H         5.3799822124       13.2424246474       25.0808647976
  H         4.3386056703       14.6841354931       25.2815848601
  C         5.3928939841       14.3985410987       23.4147521121
  C         2.4709160600        8.0179957613       19.8976765215
  C         2.7457982637       10.3693426516       19.0370605213
  C        -0.8296307364       10.2249867473       28.3299181178
  C        -1.0110417084       11.5016776097       29.1278042051
  S        -1.2277648595       14.0746573074       28.9527410025
  H         6.2885388156       14.8472989286       23.7863899123
  H         4.9812827530       15.3262466012       22.9598822153
  C         5.9390092075       13.4029753454       22.3772825398
  N         2.4891480673        6.9901241820       20.8227060106
  C         2.8376029194        7.5655900908       18.6343902277
  C         3.0432592760        9.8766380409       17.7740881949
  H         2.6958011857       11.4855613994       19.2146810812
  C         0.2159018849        9.2594023627       28.9945013321
  C        -2.1869455316        9.4654511689       28.0293010865
  C        -1.4401591106       11.9511275965       30.4068691255
  C        -1.5782341943       13.2815585963       30.5051853872
  H         6.9154261667       13.7073558903       21.9974962991
  H         6.1515113391       12.4084148602       22.8044120220
  C         5.0389343066       13.2742813610       21.1852247896
  S         2.5008794313        5.5522394554       20.0026988596
  N         2.8968703706        6.2138632838       18.5171441523
  C         3.0509288255        8.3714479541       17.5283567674
  H         3.0930377924       10.5185721996       16.9407170770
  H         0.7178735384        8.7371487073       28.1801617845
  H        -0.2613697235        8.4542400984       29.5838396855
  C         1.3613375745        9.8408643608       29.7460441622
  H        -2.1186942999        8.7342913017       27.3252818370
  H        -2.5474572245        8.8829446636       28.8999912661
  C        -3.3093651078       10.4230493189       27.5933551365
  H        -1.7316227758       11.2713465610       31.1845511184
  C        -1.8409197236       14.0834729316       31.7857938498
  H         4.2029994438       13.8805541095       21.3562271827
  H         4.6087393192       12.2672647341       21.2474537018
  C         5.8264671861       13.5166304604       19.8875830764
  C         3.2088004288        7.7478951037       16.2136045387
  H         1.7896272635       10.7209879230       29.2879033389
  H         1.0047884909       10.2205183637       30.6897538647
  C         2.4971058853        8.8255879411       29.9408862212
  H        -3.1031512908       10.9239743978       26.7206294632
  H        -3.5616367058       11.1547077759       28.3557842128
  C        -4.5977090257        9.5666057793       27.2545450766
  C        -1.8261241294       15.5252778888       31.9362578202
  C        -2.0498381457       13.3771994618       33.0655493100
  H         6.2478905192       14.4919051689       19.8617708469
  H         6.6220944847       12.7370989914       19.8826018522
  C         5.0033242349       13.4233057840       18.6221692807
  H         3.0969819598        6.6729439804       16.2700822013
  C         3.6330012609        8.1962877144       14.9584335385
  H         2.7673220320        8.5660901808       28.8908595925
  H         2.1385369400        7.9361843655       30.4872650453
  C         3.7559867149        9.3771754618       30.6886320337
  H        -4.4784904892        8.8203813887       26.4961538435
  H        -5.0192070388        9.0571592297       28.1282863342
  C        -5.7817198530       10.4782190123       26.6661604451
  N        -1.7440891884       16.4090748631       30.8770772097
  C        -2.1370278257       16.1977363769       33.0913690239
  C        -2.3595517189       14.0224534973       34.2518831174
  H        -2.0439784671       12.2932198070       33.1015048144
  H         4.0569015566       13.9324844320       18.7842940316
  H         5.5086957590       14.0689658196       17.8712980013
  H         4.7976676504       12.3452628038       18.3557604708
  S         3.8735497723        9.7734842626       14.4389600269
  C         3.7252855264        7.1604716349       13.9114899225
  H         3.8254784754       10.4644764529       30.3438910355
  H         3.5521561791        9.5288342995       31.6950390062
  C         4.9860788380        8.5324646551       30.6013931498
  H        -5.3389979010       11.1163817259       25.8625022667
  H        -6.1149785191       11.2328905180       27.3777593163
  C        -6.9245957157        9.4750833258       26.2144295358
  S        -1.8274628726       17.8928299279       31.4300793690
  N        -2.0500182403       17.5329932290       33.0184848350
  C        -2.3319773109       15.5617033764       34.3035331534
  H        -2.3816670920       13.4515583821       35.1468667757
  C         4.1446931063        9.0937974141       12.8237407125
  N         4.0815359569        7.7528405189       12.7212608701
  O         3.7260124865        5.9474796076       14.1477533501
  H         5.9486662757        9.0177471008       30.8420689031
  H         5.0635798554        8.1035722583       29.6174769938
  C         4.9655966390        7.2767825616       31.4039385059
  H        -6.5458408953        8.8785236546       25.5201730668
  H        -7.2453711310        8.9442296790       27.1252545929
  C        -7.9892833032       10.2705885560       25.5094606520
  C        -2.6706687621       16.2849146612       35.4924832404
  S         4.6124608304        9.9912125155       11.4258840505
  C         4.0540062438        6.9380194618       11.4875788219
  H         4.5004866300        7.3683745389       32.4230698714
  H         4.4567103328        6.5173154205       30.7814056116
  C         6.4105263774        6.8687304712       31.7460654113
  H        -7.4517723873       10.7747946598       24.6786667064
  H        -8.2764743914       11.0751590157       26.1736044333
  C        -9.2334250906        9.5165652763       25.1204658824
  H        -2.4490802915       17.3785272990       35.4185263691
  C        -3.1316939136       15.9256951839       36.7625741924
  H         4.9026363010        7.1211524748       10.7835260836
  H         4.0822574022        5.8791840794       11.6670929425
  C         2.7238171369        7.2626432146       10.6857906379
  H         6.2971320159        6.1741417559       32.5681347525
  H         6.9591544898        7.7597371977       32.0744203341
  C         7.0079137737        6.1834698603       30.5275517136
  H        -9.6577572613       10.0058101627       24.2514540434
  H        -8.9996830375        8.5139702100       24.7704037334
  C       -10.2264554810        9.5615183462       26.2751397217
  S        -3.4978388588       14.4227262721       37.4655095214
  C        -3.3900359355       17.0860353950       37.6651647806
  H         3.0320294785        7.8250714603        9.7260874431
  H         2.1865039466        6.3307386084       10.3860707543
  H         2.0377750704        7.9295313806       11.1264315967
  H         7.6887558986        5.4588960901       30.9392617766
  H         7.4458269026        6.7858782345       29.8000355937
  H         6.3048027627        5.7575684786       29.8507366415
  H        -9.8167265045        9.2886764235       27.2224006682
  H       -11.0946827198        8.9589839028       26.0506965308
  H       -10.7553895592       10.5225713305       26.4093271393
  C        -4.0246645728       15.2719049495       38.9443426165
  N        -3.9610715282       16.6757215650       38.8506638264
  O        -3.1857189803       18.2593512316       37.3962795587
  S        -4.8223454003       14.5202136008       40.2890104351
  C        -4.0774068673       17.5684288397       40.0226640840
  H        -4.3439502056       18.5676722827       39.6531929853
  H        -4.8416184066       17.2219874538       40.6837393842
  C        -2.7543178056       17.4970356177       40.8571350096
  H        -2.5992856931       16.5068051612       41.2951664619
  H        -1.8213733285       17.7448574611       40.2578416739
  H        -2.7682310227       18.1588505969       41.7122202728
