352
i=
  H         3.1959849718        1.7986325361       13.8467248356
  C         3.9073319402        1.7489980320       13.0444824982
  H         4.0019553997        0.6982443776       12.8559463583
  C         3.1531468910        2.4398411924       11.8423397586
  C         5.2303029294        2.3743264570       13.4321995206
  C         3.8980449498        2.4485005157       10.5279453491
  H         2.9273282980        3.4297443517       12.1748745025
  H         2.2639018018        1.8952141436       11.8006082464
  H         6.0504914311        1.8654980077       12.9605416779
  H         5.4306006845        2.4033775158       14.5703010373
  H         5.2909705086        3.4420206613       13.1417807952
  C         4.6904914137        1.1493133424       10.2010877496
  H         3.3333145855        2.8397933790        9.6457395436
  H         4.6235803174        3.3195355651       10.6919698976
  C         5.3478859781        1.2568991563        8.8334863702
  H         3.9869475892        0.3264212030       10.1615208803
  H         5.3684100746        0.9990635723       10.9362111549
  C         6.6337553581        2.1965012933        8.7565892428
  H         4.6350236641        1.6634332196        8.1187535351
  H         5.5794941261        0.2258048789        8.4447190191
  C         7.9352561941        1.4552313476        9.2281553918
  H         6.8274761655        2.5324307771        7.7466571242
  H         6.4217254545        3.0660230048        9.3272164821
  C         9.1768850990        2.4105062909        9.4675802970
  H         8.0937851022        0.7540493736        8.4026932253
  H         7.7088827177        0.8971199852       10.1401865034
  C         8.8775506696        3.7769433116       10.1786519429
  C         9.6784186591        3.1145959889        8.2431193579
  C        10.3429597436        1.6106767180       10.1577248520
  C         9.2007478580        4.8631281139        9.4029422149
  C         8.4415022947        4.1525601180       11.4508810321
  C         9.6770251778        4.4440097542        8.1750636816
  C        10.0724611772        2.4596818314        7.1138742926
  H         9.9393223127        1.2216143474       11.1452742364
  H        10.6576744950        0.7906518970        9.5110545387
  C        11.5691867369        2.4102574722       10.4458628181
  S         8.8001634091        6.3525954407       10.1002975198
  C         8.3116064762        5.5760899583       11.5315445571
  H         8.1433596880        3.3254296320       12.1403827011
  C        10.0164924193        5.0229242160        6.9735393304
  H         9.9592965315        1.4427308917        7.0611518854
  C        10.5664955688        3.0347815222        5.9865014411
  H        11.4186903066        3.3989853907       10.6848263145
  H        12.2326114094        2.5220022859        9.6014083829
  C        12.2546155969        1.8493155341       11.6849199935
  C         7.8429221977        6.2527028730       12.7357879684
  C        10.5744487565        4.4042337618        5.8875476992
  H        10.0682215180        6.1334662410        6.8739708190
  C        10.9888141489        2.6315192417        4.7481988521
  H        13.2861934667        1.7003054905       11.5951846700
  H        11.7836584311        0.8444945435       11.7456641890
  C        11.9977968704        2.5968675729       12.9313121884
  C         7.8073641707        7.7197664583       12.9124780995
  C         7.4001706602        5.4519122424       13.9269672964
  C        11.0590697301        5.1077653846        4.5977032094
  C        11.2781349973        3.6783934187        3.9236561929
  S        11.2173491481        1.1098304538        3.9474443434
  H        12.7864720588        3.3956312720       13.1501313166
  H        11.0496884781        3.1400847941       12.8705437321
  C        11.9751629794        1.5744206185       14.0974768509
  N         8.1622511914        8.6838419497       11.9534850529
  C         7.3640494747        8.2718405518       14.1328711934
  C         6.9325998368        6.0496252815       15.0938771224
  H         7.6175181893        4.3439292459       13.9611785405
  C        12.3871225424        5.8334449760        4.8145877265
  C         9.9666349779        5.9649321111        3.8181448701
  C        11.7857379933        3.2102245260        2.6636238231
  C        11.6846411635        1.8564294906        2.5486457527
  H        12.8200369810        0.8970006587       14.0156322331
  H        11.1299502983        0.8943549968       13.9064710800
  C        12.0964671646        2.2535247601       15.4590264465
  S         8.0348118672       10.1510599472       12.6477828923
  N         7.2768358650        9.6821798339       14.0605588025
  C         6.9839571475        7.5689772364       15.2377804006
  H         6.5416005796        5.4215693921       15.9431397019
  H        12.1743572813        6.5772933094        5.5173574763
  H        12.7908326065        6.2465987621        3.8975111369
  C        13.4486756182        4.9366005431        5.5092631881
  H         9.5529562815        6.6058911711        4.6304872105
  H        10.3821401228        6.7022708129        3.1082223091
  C         8.9011828844        5.0589833160        3.1593940163
  H        12.1448381498        3.9170805825        1.9475178490
  C        11.9228445465        1.0954350229        1.2459156725
  H        11.9826499460        3.3362063146       15.3916773700
  H        11.2132637456        1.9704209137       15.9743468477
  C        13.3758746114        1.7737139238       16.3045203313
  C         6.8050736161        8.3331382909       16.4332394593
  H        13.0953980785        4.7289437732        6.4866547278
  H        13.5800096256        4.0039630926        5.0324253117
  C        14.7660288507        5.6199791067        5.6798264447
  H         8.4191887585        4.4940500620        3.8848321549
  H         9.2616310404        4.4592065092        2.2757084656
  C         7.7974174283        5.8894885332        2.6113991921
  C        11.8118381979       -0.2828348877        1.0996850235
  C        12.3090812756        1.8510273465        0.0542060417
  H        14.3142610806        2.2717920200       15.9315513937
  H        13.6038598006        0.7268767438       16.1585169786
  C        13.0954935526        1.8493660826       17.8018692029
  H         6.9807731100        9.3980487332       16.3184731670
  C         6.4798711758        7.9109610041       17.7034084695
  H        14.5849033882        6.7204959104        5.8367850200
  H        15.2857845971        5.5653303014        4.7194105540
  C        15.7111492024        5.0843533213        6.7174413090
  H         7.2989370727        6.3944860459        3.4500494919
  H         8.2178045862        6.6297302027        1.9527548801
  C         6.8862052091        5.0116357369        1.7577515780
  N        11.3092208773       -1.0990313585        2.0661125407
  C        12.0670771094       -0.9316075973       -0.1040465224
  C        12.4379614232        1.2299509857       -1.1887375549
  H        12.4781864171        2.9122410163        0.0875010097
  H        13.2795711746        2.8500229019       18.2406303789
  H        13.6863881350        1.1253870508       18.2512439330
  H        12.0335036734        1.5354866156       17.8609321037
  S         6.3347635301        6.3017812306       18.3188413540
  C         6.4505227001        8.9633993063       18.7875170021
  H        15.1697257080        5.1907752766        7.6383429325
  H        15.8430517576        3.9640086953        6.5656019471
  C        17.0359775818        5.8623660494        6.8452277473
  H         6.4549284682        4.2687007061        2.4071331620
  H         7.3580408017        4.4291853430        0.9418551462
  C         5.6906687878        5.7043004468        1.0421324659
  S        11.3084320247       -2.6213556100        1.4972769141
  N        11.9228068438       -2.3253311759       -0.0110188518
  C        12.3459469620       -0.2438807049       -1.3014616089
  H        12.7130138900        1.9353894096       -2.0168808014
  C         6.2460335114        7.0516360703       19.9428509506
  N         6.2433095834        8.3688738019       20.0125002598
  O         6.6227570854       10.1666862993       18.6382470028
  H        17.1165168940        6.4173327780        5.9422560920
  H        16.9669521690        6.5793812913        7.5978597332
  C        18.2024189502        4.9609728240        7.0483707118
  H         6.1349352561        6.2722848491        0.2193210304
  H         5.0038445346        4.9350191180        0.5925699340
  C         4.8228423427        6.5991731535        1.8174760504
  C        12.6644331167       -0.8895200832       -2.4865085085
  S         5.9822154013        6.2879700918       21.4609292228
  C         6.3606441456        9.0815783282       21.2515853493
  H        18.0178900143        4.4564468303        8.0024632668
  H        18.1426477168        4.1661605970        6.3337195368
  C        19.5001349468        5.7788517143        7.0611668743
  H         5.0329967918        6.4248539742        2.9237074164
  H         3.8227672958        6.4039581721        1.6511374846
  C         4.8905888916        8.0587846985        1.4477239131
  H        12.5304333301       -1.9817399428       -2.4246167250
  C        13.2245309632       -0.5746456079       -3.7116680308
  H         5.8082039713        8.6479433090       22.0850488259
  H         5.9473816463       10.0237047302       21.0618333516
  C         7.9009712001        9.2762384807       21.5814404763
  H        20.1872045098        5.3008583585        7.7682095669
  H        19.2915779820        6.7436652743        7.5046991159
  C        20.1595306149        5.9280689724        5.6931289013
  H         5.9429907339        8.4656835779        1.5096061993
  H         4.8128943488        8.0972083230        0.3327329230
  C         3.9126784416        8.9631268306        2.1830901058
  S        13.7865130750        0.9757727089       -4.1599317083
  C        13.4412305921       -1.6210380741       -4.6561379266
  H         8.4415303606        8.3892640831       21.8978386460
  H         7.9934686586       10.0657767244       22.3895716396
  H         8.2744001066        9.6863019690       20.6663251889
  H        20.6555121838        5.0031901063        5.3742536193
  H        19.4882039030        6.2667367457        4.9682464507
  H        20.9344571898        6.6779562710        5.6871526902
  H         3.5539903180        9.7040808547        1.4800495749
  H         3.0026502714        8.4288459319        2.5224272744
  H         4.2903683458        9.3877125647        3.1200637886
  C        14.1928506983        0.2824117856       -5.6606933361
  N        13.9959239078       -1.0711892218       -5.7438325735
  O        13.1020133221       -2.8379013283       -4.5694195798
  S        14.9749418560        1.2010203906       -6.9361394302
  C        14.1782713801       -1.8484994611       -6.9868079893
  H        14.3204857679       -2.9205310429       -6.8353610676
  H        15.1108950787       -1.4851106131       -7.4019338125
  C        12.9866682583       -1.5882058228       -7.8540268593
  H        12.0955089939       -1.7294120461       -7.2389236176
  H        12.9340039837       -2.4360264287       -8.5136782659
  H        12.8953578008       -0.6462436454       -8.3816449730
  H        -4.0738535760       14.2636975725       16.0618080668
  C        -3.7855922710       13.2683986195       16.3550931290
  H        -4.6533263990       12.6541495086       16.6681593509
  C        -2.6838775339       13.0375959071       17.4084176011
  C        -3.3837072855       12.5788200797       15.0324290922
  C        -2.9692780426       13.5825381558       18.8495944779
  H        -2.5098035365       11.9624473154       17.3969845472
  H        -1.6851399329       13.5371598377       17.0959531621
  H        -3.8853451902       11.6189853075       14.9452856641
  H        -3.7151177191       13.2460464475       14.2218869596
  H        -2.3505544522       12.2788431127       14.9496707514
  C        -1.9074403284       13.4444377737       19.9526240774
  H        -3.7792511970       13.0194979687       19.2591923284
  H        -3.3443281324       14.5995843230       18.8938908133
  C        -2.4263090796       13.2363467406       21.3525996882
  H        -1.2007121876       12.6061169378       19.8021805223
  H        -1.2354273523       14.2782856445       19.8332546799
  C        -1.3607256215       12.4653106613       22.1581302353
  H        -3.3754812986       12.7329833136       21.2866630393
  H        -2.6487257185       14.1693302398       21.9810709661
  C        -0.1511570007       13.3143351676       22.4214173346
  H        -1.8788765141       12.1060344205       23.0838143485
  H        -1.0453204868       11.6079575435       21.6332021585
  C         0.8978044052       12.6629090070       23.3182846278
  H         0.3825768099       13.5042750119       21.4759229386
  H        -0.4365936620       14.2986495850       22.9163596833
  C         1.2917468535       11.3454296147       22.6800752559
  C         0.5338925820       11.9846630616       24.6222820320
  C         2.1664962345       13.6530677118       23.4209904776
  C         1.0722779601       10.2365613639       23.5083311731
  C         1.9106507099       10.9311954224       21.4604353172
  C         0.5131372417       10.6024817532       24.7007628650
  C         0.1123264435       12.5929865232       25.8037060453
  H         2.4512917193       14.1534607683       22.5250735974
  H         1.8510408107       14.4610090406       24.1499381353
  C         3.3215532500       12.8640252318       23.9862935791
  S         1.5347383175        8.6770298972       22.7852236700
  C         2.0501667701        9.5557644439       21.3530829906
  H         2.1753357575       11.7148898775       20.8104259590
  C         0.1077578656        9.9814467617       25.8333632941
  H        -0.0762506218       13.6963296154       25.8257769535
  C        -0.2526259789       11.9456112873       27.0039754515
  H         3.7593388288       12.1377384256       23.2360001683
  H         3.0352056737       12.4032306313       24.9543930456
  C         4.4954923576       13.7201355267       24.3565041926
  C         2.7110987118        8.8490272823       20.1940948777
  C        -0.2695998799       10.5692672624       27.0229988979
  H         0.2712514668        8.8946872420       25.8858187387
  C        -0.7077201119       12.2723607315       28.2815990321
  H         5.1369840222       13.0254000315       24.8930922718
  H         4.0734443043       14.3615029698       25.1112772703
  C         5.3350079812       14.4712987669       23.2508719689
  C         2.7847058293        7.4080686653       19.9839734001
  C         3.2073647761        9.6197669661       19.0068449065
  C        -0.6353310916        9.8750038029       28.3246867679
  C        -0.7991692691       11.1569825039       29.0986393439
  S        -0.9072216267       13.7981559356       29.1059755118
  H         5.8015683035       15.2983289164       23.8192241882
  H         4.5629701332       14.8836506287       22.6271094814
  C         6.2956637404       13.6151584418       22.5235756657
  N         2.3408492064        6.4301313315       20.9378170334
  C         3.0989641486        6.8013992152       18.8254159825
  C         3.2677945933        8.9725688020       17.8052636053
  H         3.1820043377       10.7028931058       18.9552749865
  C         0.4840399810        9.0219223923       28.9124505031
  C        -1.8948049994        9.1129150194       28.1417679146
  C        -1.2470744044       11.5442110792       30.3719246885
  C        -1.2511869369       12.9069963717       30.5442152125
  H         7.2180936799       13.8631065417       22.9670919558
  H         6.1137559676       12.5812393549       22.8315873828
  C         6.2173793817       13.7029254612       21.0085369530
  S         2.5358331105        4.9620303142       20.2708841612
  N         3.1308412976        5.4262539484       18.8287772383
  C         3.1995470983        7.4946766866       17.5832828520
  H         3.2911473457        9.6351489681       16.9975165144
  H         0.9675439844        8.3814060520       28.2298745176
  H         0.1402381433        8.5812833020       29.8558285280
  C         1.8023278979        9.8275266570       29.3802924466
  H        -1.6588478253        8.3545847530       27.3543129537
  H        -2.0496066927        8.6131838608       29.1115495309
  C        -3.2522652021        9.8161625877       27.8484458682
  H        -1.4208476693       10.7955151506       31.1583704454
  C        -1.5212074066       13.5332569278       31.8428225454
  H         5.9021593050       14.7560885555       20.8113371331
  H         5.4635180493       13.0558826099       20.6456543860
  C         7.5668672057       13.4327455808       20.3084597586
  C         3.3025855050        6.8302384053       16.2819777427
  H         2.2188279025       10.2671656760       28.4985460790
  H         1.5498244577       10.6009920144       30.1598698413
  C         2.9562558029        8.9880271425       29.8748857568
  H        -3.0693947554       10.3427562100       26.9011429982
  H        -3.5063598139       10.4762083275       28.6774251358
  C        -4.3479128540        8.7395181272       27.6915643060
  C        -1.5489512371       14.9935037926       32.0971486508
  C        -1.7283600903       12.7087329170       33.0633298145
  H         8.3725363173       14.0671915954       20.6593851669
  H         7.8497455294       12.5009278183       20.5734604360
  C         7.5367967939       13.6876161157       18.8851024444
  H         2.9781016352        5.8297847278       16.3111346370
  C         3.6661320307        7.2947358732       15.0627682634
  H         3.2024828459        8.1452462238       29.2390940290
  H         2.6529906774        8.5797487979       30.8037036828
  C         4.1502325052        9.8451574473       30.1566734180
  H        -3.9825867558        8.0201991931       26.9288371910
  H        -4.3577936874        8.2071508558       28.6235612959
  C        -5.8477928269        9.1472820170       27.4140710678
  N        -1.3456774923       16.0193068335       31.1684653352
  C        -1.7855894371       15.5178652185       33.4058379280
  C        -1.9361530064       13.3047568780       34.3351108427
  H        -1.6711641277       11.6422087642       32.9414816028
  H         8.1231565897       14.4824526645       18.5499355972
  H         7.7256691041       12.8754834098       18.2497243066
  H         6.5437358668       14.0155787796       18.5681298821
  S         4.0394330409        8.9097071123       14.7122373288
  C         3.6935244984        6.4077758036       13.8635072697
  H         4.3069591174       10.4637418678       29.2558907273
  H         4.0409531100       10.4203871062       31.0868947791
  C         5.4911046426        8.9909216112       30.2534019986
  H        -6.1680615808        9.9101029725       28.1016818334
  H        -6.5186947434        8.3435851052       27.7049691775
  C        -5.9317336018        9.6958057309       25.9636619898
  S        -1.4727314842       17.4769395381       31.8756039033
  N        -1.8185024858       16.9473018786       33.3841046459
  C        -2.1019965233       14.7836445990       34.5642941095
  H        -2.0982836849       12.7027747880       35.2405581259
  C         4.0949165398        8.3736880350       12.9650194533
  N         4.0698515907        7.0851729271       12.7404854009
  O         3.4214070842        5.2083114851       13.8514818040
  H         6.3489883861        9.6396844180       30.3767038656
  H         5.6266569816        8.3908279542       29.3269925471
  C         5.5144413294        7.9247960854       31.3626309625
  H        -5.1388861754       10.4201147096       25.7736051846
  H        -5.7437847556        8.8802731171       25.2112298371
  C        -7.3025722657       10.2668363238       25.4804621402
  C        -2.6073734081       15.4494421213       35.7571712325
  S         4.5232419813        9.3367502345       11.5365948218
  C         4.0700550047        6.3759306570       11.4628373977
  H         5.8657109654        8.3788003130       32.2386958878
  H         4.5231738400        7.4830762229       31.4324730304
  C         6.5627395780        6.8315898992       31.1763589124
  H        -7.0742066775       10.7045835697       24.5079717691
  H        -7.7216295197       10.9938842348       26.1332114014
  C        -8.2703970070        9.1841028302       25.2444926705
  H        -2.2378829677       16.4961727032       35.7620302574
  C        -3.3267797836       15.0184480403       36.8513853989
  H         4.7745908450        6.8697825568       10.8294226905
  H         4.5200072619        5.3671690389       11.5819111527
  C         2.6844653865        6.4159593763       10.7796841250
  H         7.5358042450        7.2352386032       30.8865651973
  H         6.2250489539        6.1499960812       30.4174469228
  C         6.5478845369        5.9226107749       32.4728401469
  H        -7.9556155531        8.4601591370       24.4525096612
  H        -8.3813491209        8.6487671371       26.2149202639
  C        -9.6699908309        9.6586302802       24.7454625195
  S        -3.9336631415       13.4587225723       36.9340051575
  C        -3.4897757369       15.9117548979       38.0316709091
  H         2.6342806727        6.9619604947        9.8476347659
  H         2.3525865360        5.3946700071       10.6623736349
  H         1.9222744708        6.9275735408       11.4003233749
  H         7.0070560367        6.4818199803       33.2608312346
  H         7.1791382208        5.0966898146       32.3289236431
  H         5.5580000643        5.5671332700       32.6358228911
  H        -9.6146963244       10.1673655021       23.7843089701
  H       -10.0113940664       10.4347215296       25.4322824890
  H       -10.4956298915        8.9997482087       24.5797386156
  C        -4.3681941196       13.8996014067       38.5858323528
  N        -4.2151570175       15.1864402191       38.9444355225
  O        -3.0937141587       17.0383978303       38.2115379628
  S        -4.8894921100       12.8536889513       39.8070682551
  C        -4.3354000255       15.6937232830       40.3024204692
  H        -4.3754279511       16.7603205819       40.2151493876
  H        -5.1689397306       15.3001071971       40.7052691117
  C        -3.0101520150       15.3177803179       40.9418966062
  H        -2.3271469934       16.1390883583       40.7098505011
  H        -3.1497806337       15.2427270806       42.0807837757
  H        -2.5358030357       14.4230853923       40.4827200306
