352
i=
  H         4.6479361247        1.4602908096       12.5527007369
  C         4.1476097810        2.4241313147       12.6805198629
  H         4.8427700639        3.2524871114       12.8737792953
  C         3.2623537270        2.5553315037       11.4199172908
  C         3.1560610298        2.1732290588       13.9469129458
  C         4.0658355579        2.7362085049       10.1376722880
  H         2.5561378910        3.4051446061       11.3910524053
  H         2.7269077895        1.6153200937       11.2695353704
  H         2.6813540187        1.2889767975       13.6026797612
  H         2.5224509528        3.0448120826       14.0422938917
  H         3.7305833036        2.0453814412       14.8651200296
  C         4.7456691117        1.4838906478        9.6315263764
  H         3.4022768449        3.2785749317        9.4452299288
  H         4.8748145611        3.4785066542       10.1389988277
  C         5.3960148748        1.6221046767        8.2536277825
  H         4.0077198143        0.6702207722        9.5709300141
  H         5.5486734320        1.1773156668       10.3187992037
  C         6.6857349312        2.4666689773        8.2688695321
  H         4.7180889930        2.1375532549        7.5451204209
  H         5.5967423494        0.6048445113        7.9522837664
  C         8.0224453996        1.8125452766        8.8712864411
  H         6.9101035689        2.9532348402        7.3387214595
  H         6.4559385923        3.3625224293        8.8887978056
  C         9.1203671319        2.9174684346        9.0541386419
  H         8.3824477525        1.0847370030        8.2620405234
  H         7.7781543362        1.4502014280        9.8324142174
  C         8.6958672861        4.2531503217        9.7034595286
  C         9.4959712462        3.6217233676        7.7879468115
  C        10.3749047348        2.3449794711        9.7611428332
  C         8.9458059930        5.3387354181        8.9193013554
  C         8.0466882523        4.6400811835       10.8973818677
  C         9.5551939713        4.9619523152        7.6978263280
  C         9.9207974603        3.0388311991        6.5559953317
  H        10.1290331084        1.9741524302       10.8024025198
  H        10.6725296845        1.4404479802        9.3143015379
  C        11.6404315785        3.3886468253        9.7828299185
  S         8.6444243619        6.8951035744        9.6211610109
  C         7.9341594343        6.0105640540       10.9699173235
  H         7.8387630134        3.9672707392       11.6391093478
  C         9.9414345487        5.5442802390        6.5358638801
  H        10.0908258874        1.9621692490        6.6303668028
  C        10.3142304957        3.7046910302        5.4062257958
  H        11.2702460954        4.3262445968       10.2677256929
  H        12.0654826588        3.7671298906        8.8098839436
  C        12.6975377525        2.6378798350       10.6742664314
  C         7.5335306287        6.7603154016       12.2721026059
  C        10.2955147356        5.0371080202        5.2956476064
  H         9.7691631507        6.5988611322        6.5740380793
  C        10.6777327730        3.2960128711        4.1305828280
  H        13.6979972339        3.1951333375       10.7379038203
  H        12.9254572140        1.6300987626       10.2130200047
  C        12.2831527662        2.5674969101       12.2129327480
  C         7.6651482831        8.1857307080       12.5329812086
  C         7.0545834144        5.8762327456       13.4126978001
  C        10.5887365573        5.8165266356        4.0264533394
  C        10.8808431819        4.4396853708        3.3475369959
  S        11.0635279282        1.8720488886        3.3468706787
  H        12.0605171651        3.6144270038       12.3351230006
  H        11.4168537675        2.0060500106       12.4579791660
  C        13.4055042615        2.0937014980       13.2072568465
  N         8.1683007547        9.1298535986       11.6661457428
  C         7.3961445457        8.6392163893       13.8055682640
  C         6.7316971781        6.4077301459       14.6399126208
  H         6.7073812628        4.8150671533       13.2326866149
  C        11.9034275210        6.6767395906        4.1336676571
  C         9.3161675914        6.5511387560        3.3838895671
  C        11.3670668486        4.0666429218        2.0384091643
  C        11.4060491705        2.7228758866        1.8545719976
  H        14.2084697145        2.7787112504       13.2076831199
  H        13.7298606607        1.1533685200       12.8106992954
  C        12.8629494748        1.9098365538       14.5914590763
  S         7.9527103675       10.6092435269       12.3679086285
  N         7.6794637624       10.0451494420       13.8901256070
  C         6.9435563987        7.9231446332       14.8937883147
  H         6.3766887221        5.7661230230       15.4615440613
  H        11.6839169845        7.4206849543        4.9126653865
  H        12.1300108467        7.3957326519        3.3272548291
  C        13.0864755546        5.8175065395        4.5903449472
  H         9.0041198526        7.2924773968        4.1820942777
  H         9.6831375191        7.0863357740        2.6566539675
  C         8.1051605310        5.7030144086        2.9032698778
  H        11.6005539456        4.8597358007        1.2826327049
  C        11.7931296049        1.8403613424        0.6214609099
  H        12.1669595466        2.7556729568       14.7634298789
  H        12.2457563855        0.9979863141       14.6248831555
  C        13.8993260670        2.0193920620       15.6714680208
  C         6.7845746360        8.5579088672       16.1610088365
  H        12.8556542988        5.2029514029        5.4961141430
  H        13.3812386016        5.0708347561        3.8342707603
  C        14.4104677500        6.5599017205        4.8001243749
  H         7.7316150870        4.9539990669        3.6736401360
  H         8.2644415753        5.0690828979        2.1101149516
  C         6.9349254652        6.6058269941        2.4963585073
  C        11.8770754408        0.4288105668        0.5312694163
  C        12.0820867992        2.5620274956       -0.6448348745
  H        14.4246116934        2.9661647025       15.5957130952
  H        14.6087521322        1.1865584307       15.5536340845
  C        13.2413455743        2.1499202057       17.0465475765
  H         6.5639970904        9.6124131594       16.1784386573
  C         6.4740555434        8.0574027591       17.4145700294
  H        14.3133628246        7.0722019100        5.7776266857
  H        14.5014574043        7.3520604920        4.0411494419
  C        15.5583541406        5.5626838414        4.9793734557
  H         6.7816200278        7.4567879605        3.2406091308
  H         7.0702453985        7.2604995343        1.6576000736
  C         5.7272919576        5.8206237681        2.1001742290
  N        11.4889245404       -0.4957872981        1.5676338671
  C        12.1182637078       -0.2240439763       -0.6751043782
  C        12.4575307832        1.9103847288       -1.8621531977
  H        12.0011115815        3.5800238826       -0.6649750184
  H        12.8201828193        3.0555722272       17.1463541182
  H        13.8850360495        2.0896906088       17.9382099544
  H        12.4799529970        1.3207443975       17.2590638034
  S         6.3016081347        6.4547258334       17.8391218619
  C         6.2237367541        9.0606640457       18.5314462058
  H        15.1645100059        4.8742359571        5.7277031426
  H        15.6186991460        5.0103284074        4.0794344030
  C        16.8135227862        6.2268890788        5.5530419363
  H         5.4081678010        5.4305263792        3.0815375873
  H         6.0313916128        4.9723491548        1.4962509098
  C         4.5889506394        6.4438741565        1.3389372675
  S        11.6807122484       -2.0025922493        1.0048723843
  N        12.1807280636       -1.5982989715       -0.5213662840
  C        12.4717535280        0.4163956233       -1.9060911799
  H        12.6172486535        2.5985963592       -2.6331371742
  C         6.0256599152        7.0390417300       19.4764627946
  N         6.0519227434        8.3749228352       19.6534375232
  O         6.5186120300       10.1902335705       18.4281082892
  H        17.5837327007        6.2135228281        4.7347435241
  H        16.7144743037        7.2735249393        5.7868868491
  C        17.2965972367        5.5241303990        6.8029894964
  H         5.0354230744        6.7727907799        0.3634777063
  H         3.8208644011        5.5266556369        1.1408207257
  C         3.9774380242        7.6727300230        1.9970616436
  C        12.7995527357       -0.3865456005       -3.0623638929
  S         5.8666019828        6.0287052975       20.8848485604
  C         5.8907769080        9.0623953005       20.9285183180
  H        16.4726811993        5.5956784920        7.4926635299
  H        17.4549802016        4.4808422661        6.6487019737
  C        18.6116675887        6.1285816247        7.3965510154
  H         4.5474276315        7.9482837861        2.9157027643
  H         3.1735967842        7.2304116482        2.5659662311
  C         3.6918672256        8.8669189599        1.1322912034
  H        12.2421918616       -1.2456532188       -3.0800047060
  C        13.2867048440       -0.0021304069       -4.3182318625
  H         5.0455770154        8.7320646186       21.5543097110
  H         5.7057913916       10.1268466855       20.7625181799
  C         7.1750425967        9.1039674813       21.7900110187
  H        18.8184937150        5.5389624819        8.3399533650
  H        18.2480138069        7.1558135733        7.6037357588
  C        19.7640891190        5.9814511423        6.4448688310
  H         3.6300961700        8.5994902126        0.0796281731
  H         2.6981872057        9.2086330174        1.3657764488
  C         4.7594563766        9.9662710002        1.2281700195
  S        14.1604134084        1.4646801501       -4.8101008488
  C        13.2596924971       -1.0509935496       -5.4075597599
  H         7.0805633660        8.2049792909       22.3398637051
  H         7.3266801069       10.0225744494       22.4889893940
  H         8.0090048363        9.1712282910       21.1063057537
  H        19.9819637996        6.9574358553        5.9442344815
  H        20.6233378493        5.5933842140        6.9805296383
  H        19.5462686922        5.1664807585        5.6767293651
  H         4.9287478968       10.2892477011        2.2533458093
  H         5.6544357184        9.6606131378        0.7536714709
  H         4.4693568551       10.8676141269        0.5912819262
  C        14.0818056043        0.8196087005       -6.4318302080
  N        13.7342493173       -0.5206426851       -6.5416258283
  O        12.7883510413       -2.1382901950       -5.1481753569
  S        14.8667418178        1.5989899385       -7.8096624857
  C        13.7802784317       -1.3288478817       -7.7432868324
  H        13.8650940115       -2.3233762508       -7.3551871273
  H        14.6730563935       -1.1356365577       -8.2967992361
  C        12.6398819138       -1.0637111712       -8.6639146708
  H        12.7335654142       -1.7359352542       -9.5536220485
  H        12.7748440551       -0.0856354302       -9.1936073755
  H        11.7773597707       -1.1606807578       -8.0315854901
  H        -4.2151348211       14.7074309543       16.4529768943
  C        -3.5255870479       13.8993836872       16.5143484294
  H        -4.0553615461       13.0068583873       16.7923100179
  C        -2.4972891027       14.1573899132       17.5611553665
  C        -2.8806306661       13.4814540736       15.1264850780
  C        -3.0773027199       14.0835355011       19.0155966701
  H        -1.6652220413       13.3521139274       17.4328768096
  H        -2.0493499658       15.1564436615       17.5467659334
  H        -3.5097023969       13.0632432341       14.3426953527
  H        -2.5500761069       14.3828599073       14.6444790480
  H        -2.0111094589       12.7578507675       15.1457609495
  C        -2.0071443125       14.1353080642       20.0591151813
  H        -3.7725533144       13.2155664877       19.3254961015
  H        -3.5525572374       15.0188046456       19.2031111619
  C        -2.5036549241       13.7640777347       21.4004978981
  H        -1.2516479966       13.4362632621       19.6794759460
  H        -1.5347923480       15.0659304815       20.0615787830
  C        -1.4485806601       13.0430995038       22.2623167343
  H        -3.2804328963       13.0824822594       21.3604894433
  H        -2.9470066311       14.5995574380       21.9879147249
  C        -0.1615403223       13.8541038081       22.6238658576
  H        -1.8309032216       12.7191952030       23.1563899406
  H        -1.1641994653       12.1198774880       21.8174056704
  C         1.0293610367       13.0486657737       23.2925346416
  H         0.2991383471       14.4193328548       21.8582836594
  H        -0.3975616098       14.6261661960       23.3854322601
  C         1.2883452915       11.7147528131       22.6237871441
  C         0.5874533919       12.3227970307       24.5538871046
  C         2.2273405016       13.9620711995       23.6374944521
  C         1.1369637518       10.5854611188       23.4194638178
  C         1.8252095573       11.3619712379       21.3271205318
  C         0.5960006237       10.9643213635       24.6372397309
  C         0.1111441676       12.9258814348       25.7073027531
  H         2.3351599471       14.7649414789       22.9660772984
  H         2.0112953372       14.4213844658       24.6047223954
  C         3.4935233090       13.2208046051       23.8245467190
  S         1.7214053366        9.1198221549       22.7069015174
  C         2.1213587890       10.0170977814       21.2840552035
  H         2.1892437405       12.0842849733       20.6553530725
  C         0.1647270132       10.2898646681       25.7604400394
  H         0.0566254550       13.9813979673       25.6679788616
  C        -0.3356292890       12.2831844813       26.8463145067
  H         3.6679405590       12.4659609510       23.1064917498
  H         3.3510454250       12.5044715956       24.6837263755
  C         4.7986344268       13.9806446647       24.2397434039
  C         2.5604750855        9.2658074974       20.0174311825
  C        -0.2828132567       10.9125106723       26.9373900538
  H         0.4156186071        9.2707505511       25.7887344091
  C        -0.6376295865       12.6949581175       28.1218278468
  H         5.4207014993       13.4607357425       24.9446442721
  H         4.4211001514       14.8714832233       24.7900661660
  C         5.6109037115       14.2785611545       22.9286426380
  C         2.5106578838        7.8620448074       19.8110970572
  C         2.8983976468        9.9973778878       18.7861963215
  C        -0.6388063212       10.3322755782       28.2452354463
  C        -0.7857584774       11.6463509436       29.0107964703
  S        -0.9739560042       14.2649112164       28.8873501800
  H         6.3026352761       15.0523620063       23.0670878505
  H         4.7890377101       14.5156005522       22.2234837578
  C         6.3030499470       13.1053186123       22.1837405033
  N         2.0752462872        6.9067508384       20.6953286452
  C         2.8507142787        7.2387002924       18.6537220486
  C         3.1356600902        9.4035562121       17.5818569415
  H         2.9225494901       11.0938151968       18.8900213786
  C         0.6480069993        9.6660827186       28.9256802348
  C        -1.9058625790        9.4717418221       28.1363454064
  C        -1.0651486707       12.0677640766       30.2260686981
  C        -1.2250780960       13.4175615253       30.2931487210
  H         7.3085167311       12.9239033977       22.5057449385
  H         5.8628648670       12.1477056785       22.4314175744
  C         6.2592190520       13.3200872114       20.6360012230
  S         2.1216407810        5.3904949905       19.9678233016
  N         2.7026159738        5.8730446102       18.5854192042
  C         3.1500838995        7.9325921416       17.4646912797
  H         3.3761902383       10.0442195803       16.7226280997
  H         0.7450845044        8.7814755566       28.2732380894
  H         0.4212976572        9.3448341579       29.9082374657
  C         1.9468326948       10.5124650427       29.0645820188
  H        -1.7627081313        8.5543763410       27.6211987237
  H        -2.1486020291        9.1887642936       29.1563845082
  C        -3.1931761858       10.3025804498       27.6847996465
  H        -1.3196088673       11.2575738322       30.9659337903
  C        -1.6188369348       14.2332463690       31.4969205731
  H         5.7179292664       14.2854083904       20.4324571913
  H         5.5760805018       12.5571018278       20.2376004028
  C         7.6116390376       13.3061783200       19.9553547039
  C         3.3233524995        7.2511879267       16.1540768302
  H         2.4671509349       10.7225954219       28.1115863113
  H         1.8700147631       11.4357012966       29.5905844944
  C         2.8862099755        9.6522365143       29.9135032741
  H        -3.0026528273       10.8160448072       26.7384710280
  H        -3.3379864467       11.0259415861       28.3648032821
  C        -4.4755810484        9.4643599950       27.6504819868
  C        -1.6524761292       15.6726644671       31.5873085996
  C        -1.9010743203       13.4701384619       32.7709494772
  H         8.0427260268       14.2346703667       20.3581932861
  H         8.3284964197       12.4383849902       20.0826892969
  C         7.6438745500       13.4699166782       18.4824441591
  H         3.3387247694        6.2528861570       16.2661534384
  C         3.5005868354        7.7350964003       14.8381316625
  H         3.3550770072        8.8676676532       29.3342306070
  H         2.4256325701        9.1494504627       30.6506871117
  C         4.0509838822       10.5548757816       30.4882571416
  H        -4.0029880949        8.7662938007       26.9607403245
  H        -4.7869635079        8.9902120428       28.5922456104
  C        -5.5991933583       10.2667516327       27.0107623074
  N        -1.5407384202       16.5936420011       30.5640050437
  C        -1.8835274645       16.3459569329       32.7886448471
  C        -2.1476074313       14.1639809426       33.9347853504
  H        -1.8015195046       12.4018574419       32.9300964927
  H         6.5495852934       13.3424526366       18.0946677045
  H         8.0571635753       14.4233863479       18.1511206604
  H         8.1685334009       12.6540060921       18.0964711390
  S         3.7710651335        9.3598224146       14.3933970057
  C         3.5944985237        6.5972344686       13.8121432472
  H         4.0830290154       11.5310865403       30.0049048353
  H         3.7075333673       10.5711409345       31.5107903590
  C         5.4761983755       10.0150158640       30.5049610174
  H        -5.2504942388       11.2667679931       26.6762231082
  H        -6.3104396521       10.5674643912       27.7702431894
  C        -6.3771866466        9.6296382740       25.8424609306
  S        -1.6332390349       18.0756404165       31.1529652118
  N        -1.8683807079       17.7083653233       32.7217059239
  C        -2.1498401531       15.7020838536       34.0027027985
  H        -2.2743475789       13.5709319605       34.8202945943
  C         4.0011020634        8.5792842369       12.7672522227
  N         3.7449615704        7.2518308177       12.6526885387
  O         3.5195005388        5.4181273859       14.0777758929
  H         6.1752826198       10.8213175376       30.6836562111
  H         5.6427313649        9.6877241150       29.5012139433
  C         5.5499050341        8.7399294765       31.3862544635
  H        -5.6787418280        9.6084191044       25.0440924219
  H        -6.7533828646        8.6118057820       26.0513838124
  C        -7.4933413640       10.5579327266       25.3054897042
  C        -2.5551550084       16.5006279634       35.0965219628
  S         4.3730993336        9.4748773160       11.3201636420
  C         3.6077265302        6.4704904095       11.3497955925
  H         6.1868085191        8.9258179258       32.3021642808
  H         4.5594008273        8.6216916724       31.8154035747
  C         6.0593524416        7.6806708424       30.4998112237
  H        -6.9673399046       10.9603980258       24.4164203814
  H        -7.6726253745       11.4261885813       25.9610312402
  C        -8.8643537123       10.0166904087       24.9810855146
  H        -2.2889166943       17.5734340948       35.0834414065
  C        -3.0596946938       16.1736007870       36.2932813818
  H         4.0128495994        7.0587610807       10.5151697779
  H         4.1727601098        5.6053920217       11.2737465696
  C         2.1360072741        6.3364433416       10.8938459385
  H         7.0253911367        7.9123227318       30.0866376446
  H         5.5264623896        7.4753528725       29.5439691925
  C         6.1997936038        6.3712184295       31.1164846467
  H        -9.2189332174       10.5779472625       24.1308639590
  H        -8.9415197395        8.9171222052       24.8713687398
  C        -9.7183490787       10.1657079225       26.2030908190
  S        -3.4947034278       14.6375959817       36.8223159121
  C        -3.2587608630       17.3407447959       37.2642641610
  H         1.4057866484        6.8498778430       11.5038241721
  H         1.9553807367        6.6697755534        9.8755388146
  H         1.9410963265        5.2408608978       10.9998288326
  H         6.4750026930        5.6343526130       30.3130474256
  H         5.2626684462        5.9888046450       31.5286840168
  H         6.9858470007        6.4512169546       31.9235443541
  H       -10.5570387553       10.7082223312       25.7297987639
  H        -9.2632624314       10.7210055669       26.9674559995
  H        -9.9412341587        9.1681299550       26.5101079274
  C        -4.0323100968       15.4116745794       38.3228774858
  N        -3.8671034772       16.8071882191       38.4193665241
  O        -2.9165599488       18.4753036527       37.0627297173
  S        -4.8304715649       14.5562869218       39.7121543070
  C        -4.0153603910       17.6394664001       39.6377891804
  H        -4.5144779868       18.6057083608       39.5286657239
  H        -4.6428004746       17.1225549090       40.3485460987
  C        -2.6777658402       17.8661590676       40.3155702361
  H        -1.9309738561       17.6887566407       39.4477357535
  H        -2.5696775117       18.8786020431       40.8876048449
  H        -2.5449065003       17.0984027765       41.0219954111
