352
i=
  H         4.9711356411        1.4442189897       12.9062347802
  C         4.2890391417        2.2720406961       12.9069594358
  H         4.8870123436        3.1938317992       12.9122016484
  C         3.4089764541        2.2164789129       11.6588537907
  C         3.5718917871        2.1485656361       14.2523352667
  C         4.1474066708        2.6742223836       10.3725416600
  H         2.6522301036        2.9646362404       11.6673578184
  H         3.0061010944        1.2160543255       11.5709944407
  H         2.9744959359        1.1861669743       14.2703943338
  H         2.8883332773        2.9767075140       14.3589126487
  H         4.3166066744        2.1864626615       15.0387545423
  C         4.9924477152        1.4629536052        9.7988190199
  H         3.4931167704        3.1956923746        9.6642651881
  H         4.9250966579        3.4527288110       10.5604050438
  C         5.5083510314        1.6761017505        8.3039359945
  H         4.4383841865        0.5569093161        9.9045852414
  H         5.8676083093        1.2250465988       10.4027743568
  C         6.7372329359        2.4823086543        8.3348979008
  H         4.7696869750        2.1668401522        7.7384918135
  H         5.6539651558        0.7484297946        7.8240551908
  C         8.0293926538        1.7525579507        8.7976438635
  H         6.9671324808        2.9692773817        7.3536939425
  H         6.5059044809        3.3200941355        8.9312523450
  C         9.2329253341        2.6612221498        9.0111851757
  H         8.3371013208        0.9234568770        8.1223222049
  H         7.9116516327        1.1521498555        9.7591538594
  C         8.7761209996        3.9825118331        9.7024585843
  C         9.6640962954        3.4759531964        7.7934413004
  C        10.4146358539        1.9843303570        9.7912647995
  C         9.0715384057        5.1374481449        8.9878679919
  C         8.2149290691        4.3180035519       10.9772864483
  C         9.5634281687        4.8690142275        7.7386391757
  C        10.1611591788        2.8957271381        6.6535418064
  H        10.0707257190        1.6285661945       10.8136886442
  H        10.8020671177        1.2004362838        9.1900351115
  C        11.5970764176        2.9559473044       10.0472248875
  S         8.8026383478        6.5846821564        9.8646493136
  C         8.1876898105        5.6401112518       11.2250890905
  H         8.0921173884        3.5781818937       11.7381842678
  C         9.8938353636        5.5788295285        6.5729345003
  H        10.1265595005        1.8109066266        6.6452262226
  C        10.4678988707        3.5814320153        5.5529294042
  H        11.2361483339        3.8244499787       10.6042535795
  H        12.1291819141        3.1736721147        9.1232017141
  C        12.6910807248        2.3096156033       10.9587038688
  C         7.7333113886        6.3197910344       12.4876338619
  C        10.3530676873        4.9330278213        5.4411684465
  H         9.8086092569        6.6614461981        6.6074066124
  C        10.7973957650        3.1466035682        4.3311453399
  H        13.6117267772        2.8934248596       10.9524324992
  H        12.9953574644        1.3204182107       10.5905160395
  C        12.2568155474        2.2167349590       12.4411153984
  C         7.6632453037        7.7234806063       12.7059535923
  C         7.3197968306        5.4937442394       13.6621707871
  C        10.8545251655        5.6042052819        4.1592728288
  C        11.0161307970        4.1963757776        3.4502442193
  S        11.1853233521        1.5895184070        3.7056233784
  H        11.9760800786        3.1777606740       12.8360206581
  H        11.2735998102        1.6674701270       12.4294447141
  C        13.2967822516        1.6034731734       13.3308720556
  N         7.8787572469        8.7570887605       11.7009785270
  C         7.2811902433        8.3102736687       13.9201689985
  C         6.9786581474        6.1073147913       14.8619830467
  H         7.2506156480        4.4249776354       13.6681492725
  C        12.2596714544        6.2770008095        4.2587796692
  C         9.7733896407        6.3989265623        3.4403935137
  C        11.3649668457        3.7089043695        2.1675311533
  C        11.4760737453        2.3412393339        2.1799329749
  H        13.9914151319        2.4385028357       13.5647567046
  H        14.0354844631        0.9761006161       12.8618800550
  C        12.8613975363        0.8836084196       14.5998305353
  S         7.8375104486       10.2567370363       12.4187711143
  N         7.3901736863        9.6800073214       13.8835458197
  C         6.9355682660        7.5531701362       15.0506499445
  H         6.6514990899        5.6162660729       15.7476560035
  H        12.2456907831        7.1001978843        4.9966894382
  H        12.6644879651        6.6776087569        3.3427509817
  C        13.3522752152        5.3008354471        4.7859507777
  H         9.3757068827        7.1670283077        4.0640551095
  H        10.3596338667        6.9423244836        2.6495691420
  C         8.5757135011        5.5311543519        2.8922015070
  H        11.5895451635        4.3796089694        1.4053431824
  C        11.7599469463        1.5450284546        0.9557763789
  H        11.8869776785        0.5070720841       14.5436038011
  H        13.5900466534        0.0777329256       14.8710300397
  C        13.0282771761        1.8095072038       15.8721924233
  C         6.7345247955        8.2734616222       16.2840492697
  H        13.1138992665        4.6670439709        5.5835611736
  H        13.5260058591        4.5276836382        4.0530454613
  C        14.5465018094        6.1245477269        5.0955862368
  H         8.1058432639        4.8324127722        3.6136529070
  H         8.9840952328        5.0341402587        2.0534938632
  C         7.5425239045        6.4433492203        2.2438918816
  C        11.9448028996        0.1534782858        0.8261801835
  C        11.9346202331        2.3185044203       -0.3298339728
  H        12.5559617911        2.7892637738       15.7448435305
  H        14.0829265174        2.1036342911       16.0510014136
  C        12.5068946122        1.0574141118       17.0836819567
  H         6.7307182597        9.3163579612       16.1454983688
  C         6.4676868657        7.9293106182       17.6195684055
  H        14.1755283014        6.8815052240        5.8657252807
  H        15.0015455624        6.6501803596        4.2573922851
  C        15.5540433624        5.3086685436        5.7614213242
  H         7.1522252665        7.2057133725        2.9759285394
  H         7.9140446067        6.9647378514        1.4458616046
  C         6.4746176486        5.5841192449        1.5242398760
  N        11.8079994788       -0.7390345094        1.8799354558
  C        12.1750557395       -0.4680383656       -0.4034910790
  C        12.2153015601        1.6720729791       -1.5188735988
  H        11.5633583421        3.3346094346       -0.4174908365
  H        11.7087831965        0.4364136099       16.9065893528
  H        12.4001826110        1.7514490703       17.9125889064
  H        13.2726085172        0.4097956913       17.4028174136
  S         6.0520712385        6.3253034610       18.2253078297
  C         6.5540832609        8.9960129736       18.5959705128
  H        15.1381011419        4.8827265209        6.6836979206
  H        15.8392334207        4.5519546179        5.0537254459
  C        16.7772061346        6.1284784073        6.1242311887
  H         5.9865170687        5.0267640358        2.3235058507
  H         6.9618074654        4.8142709310        0.8386837193
  C         5.3699665087        6.3577446618        0.7244886707
  S        11.9881138131       -2.1963213206        1.1965201863
  N        12.2041371007       -1.7957160945       -0.3301290343
  C        12.4012118249        0.2359525333       -1.6158754087
  H        12.2766777644        2.3325480066       -2.4017977262
  C         6.0167249742        7.1978616306       19.8329737742
  N         6.2562935119        8.5165980044       19.8145880057
  O         6.6897026987       10.2131010556       18.3077229504
  H        17.3340344806        6.4775373424        5.2630896579
  H        16.5499421844        6.8728532566        6.8656311010
  C        17.7373583036        5.2967384822        6.9128230724
  H         5.7659965020        6.9066793669       -0.1102177611
  H         4.8477094358        5.6190610132        0.2151517613
  C         4.4125302355        7.2555170950        1.5216903516
  C        12.7966975105       -0.5303317874       -2.7346623557
  S         5.6177341647        6.3256818100       21.2510162671
  C         6.3542683108        9.2923305907       21.0265746589
  H        17.3566544976        4.8673362073        7.8115003962
  H        17.8953650478        4.4227680476        6.3285022072
  C        19.0405590587        5.8716513849        7.1555942878
  H         4.6357023624        7.1902359296        2.5588654511
  H         3.3894486828        6.9375524158        1.5118491374
  C         4.3506569389        8.7067521119        1.0923563711
  H        12.6136691745       -1.5912971518       -2.6721278760
  C        13.3028875775       -0.1681198889       -3.9767918287
  H         5.5774151445        9.1609898150       21.8316132564
  H         6.1317056114       10.3436633399       20.8081142118
  C         7.7878366711        9.1661096703       21.5692705329
  H        19.4979249838        5.5453601167        8.0784292865
  H        18.9096871149        6.9619311601        7.3032010938
  C        19.8487765744        5.8122829278        5.8404606447
  H         5.3800509260        9.0887176800        1.2909157028
  H         4.2366954018        8.6235291958       -0.0044955506
  C         3.1444028974        9.5500450480        1.6086168466
  S        13.7145070803        1.4816307815       -4.4981177125
  C        13.4368084231       -1.1901837764       -5.0552439688
  H         8.3604681345        9.5674075529       20.7493766287
  H         8.0365854766        8.1530680016       21.7490713601
  H         8.0471747886        9.7863286625       22.4725969540
  H        20.9533396167        5.6999948501        5.9787869562
  H        19.6960675403        4.8910140952        5.3676472310
  H        19.5204035847        6.5442202997        5.1830706517
  H         3.1435700722       10.5408935476        1.1567105358
  H         2.2247349799        9.1248220200        1.2741306678
  H         3.1635145112        9.6166711171        2.7588305656
  C        14.1266154437        0.8083805192       -6.0480247459
  N        14.0532054783       -0.5835076349       -6.1032616606
  O        13.2299846376       -2.3504149402       -4.8585353479
  S        14.7600908076        1.6789601588       -7.3931581598
  C        14.3025290883       -1.3805666120       -7.3210493048
  H        14.4652989083       -2.4207555738       -7.0934699132
  H        15.2232476004       -1.0817047200       -7.8775341789
  C        13.0490104195       -1.1919172595       -8.1218768253
  H        13.4698960967       -0.6948618339       -9.0025861829
  H        12.3293567984       -0.5402715341       -7.6378245263
  H        12.5457040443       -2.1781492898       -8.3244340640
  H        -3.3531420064       14.8867532814       16.5727789951
  C        -3.0881129764       13.8638225167       16.6730380090
  H        -3.9195661379       13.2429583885       16.9483571645
  C        -1.9125580417       13.6735585898       17.6712189576
  C        -2.5685477655       13.3908776828       15.3308198110
  C        -2.2438826518       13.9370291611       19.2025565216
  H        -1.5306789576       12.6639620577       17.6646580784
  H        -1.1290263434       14.2794494201       17.2956189278
  H        -2.0311583559       12.4685390610       15.3004536964
  H        -3.3581455173       13.4048371726       14.5207562942
  H        -1.9240663268       14.1515100489       14.9825895310
  C        -1.7591858900       12.8538567973       20.1034009188
  H        -3.2942217440       14.2292908532       19.2119381613
  H        -1.7475187002       14.8012977152       19.5180470453
  C        -2.3934887741       13.0465348527       21.5058170774
  H        -2.3028883607       11.9811339652       19.6699022881
  H        -0.6702407600       12.6716760746       20.0830480622
  C        -1.3427359778       12.6962742557       22.5758218972
  H        -3.3428707481       12.4946930738       21.6187956002
  H        -2.5411331389       14.0892705712       21.6387995271
  C        -0.0773450182       13.5987511008       22.4931892585
  H        -1.7890819551       12.8314644056       23.5426994585
  H        -0.9715951814       11.6444565392       22.4054571207
  C         1.0796152223       13.0283083327       23.3449073518
  H         0.3656257121       13.7215445873       21.4746072518
  H        -0.2587105337       14.6371738378       22.7160471248
  C         1.4191811945       11.6321757478       22.7582752721
  C         0.5936533153       12.3182119113       24.5701402677
  C         2.2433417076       14.0652424739       23.5521958363
  C         1.3447582870       10.5466452568       23.5958847683
  C         1.9371191617       11.2187312779       21.5116632766
  C         0.7195385476       10.9836752337       24.7670918515
  C         0.1628403096       13.0011436334       25.7249892781
  H         2.5740715973       14.5892587130       22.5880465222
  H         1.9911424139       14.8388783076       24.3187569959
  C         3.5929808700       13.5175890897       23.8684114521
  S         1.8436346259        9.0669878690       22.9713755671
  C         2.1922142215        9.8853774741       21.5425213010
  H         2.0809402639       11.9271104784       20.7577744115
  C         0.4391882191       10.3816518050       25.9646053356
  H         0.3135725634       14.0986647097       25.7073643267
  C        -0.0490605525       12.4064218287       26.9482757525
  H         3.8615904345       12.7931320674       23.0854017405
  H         3.4456653598       12.8641171831       24.7182921775
  C         4.7104362276       14.4635400677       24.1265229632
  C         2.7217041225        9.1106919546       20.4350916939
  C         0.0346698577       11.0349991847       27.1443935313
  H         0.4770473635        9.3304977963       25.9372904453
  C        -0.4357474716       12.7792942331       28.1970779623
  H         5.4483667462       13.8204970163       24.5655832395
  H         4.4316018403       15.2216494763       24.8026626052
  C         5.3653688880       15.0982920097       22.8347994181
  C         2.5103671727        7.6944218496       20.2116966408
  C         3.1461722720        9.8772804907       19.2723852090
  C        -0.3566796840       10.3592691450       28.5025324982
  C        -0.5470317655       11.7627756980       29.0561782695
  S        -0.6080900304       14.3012543082       28.8828889333
  H         5.6707180272       16.0959987558       23.1368132750
  H         4.5915304965       15.1574481301       21.9875876437
  C         6.7080878384       14.4083486922       22.4085087237
  N         2.1469618024        6.6990583961       21.1633801420
  C         2.5645538702        7.1147684948       18.9488508165
  C         3.2245431115        9.3055009071       17.9841082156
  H         3.3767903399       10.9064229076       19.4460405228
  C         0.7726411676        9.6545036577       29.2327541622
  C        -1.6240003213        9.5377873288       28.2672911597
  C        -0.8112190162       12.2163266809       30.3551087644
  C        -1.0418994705       13.5485760645       30.3666751445
  H         7.3275961386       15.0866964693       21.8384316396
  H         7.3215784261       14.0414200672       23.2006646651
  C         6.5356671235       13.2616611220       21.4136508599
  S         2.1014043265        5.2157097226       20.4320082290
  N         2.3572408416        5.7305144815       18.8975445470
  C         3.0118615337        7.8493677024       17.7972564171
  H         3.6986121921        9.8997324604       17.2507731180
  H         0.9813197094        8.7399670354       28.6752714421
  H         0.3075979818        9.0701643534       30.0171473546
  C         1.9499240456       10.5328432277       29.5984984410
  H        -1.4552718415        8.6578427608       27.5868652785
  H        -2.0870395897        9.2842721310       29.1801557415
  C        -2.6835317395       10.2717816206       27.4309997489
  H        -0.7617190909       11.4411585715       31.1188645426
  C        -1.4160928890       14.3305292574       31.5624840028
  H         5.7070647219       12.5904993053       21.7195907022
  H         7.4357079149       12.6458159077       21.4668271127
  C         6.1636777703       13.6322286043       20.0243146554
  C         3.2293865907        7.1643154675       16.5545083759
  H         2.2697053430       11.0569884745       28.7193748572
  H         1.6956464237       11.1758948059       30.4198543828
  C         3.0781618556        9.6952704570       30.2085685851
  H        -2.2796949696       10.3526802860       26.4785247984
  H        -2.9439909423       11.1872881273       27.9409053367
  C        -3.9979395097        9.5753261165       27.2836257418
  C        -1.4811605812       15.7409343319       31.6739672145
  C        -1.4986990795       13.6056472666       32.8610872893
  H         5.2991994538       13.0974219311       19.8268694176
  H         5.9623860738       14.6760143435       20.0337496732
  C         7.3320145076       13.5466891676       19.0325887705
  H         3.3356748795        6.0386308569       16.6902104541
  C         3.3642047985        7.6297471537       15.2406251653
  H         3.2395042454        8.8816316622       29.6189591223
  H         2.6041733065        9.3576393975       31.1212042186
  C         4.4066641178       10.5196706367       30.4430045931
  H        -3.9454702859        8.7355519880       26.5912561024
  H        -4.2552009963        9.2876332378       28.2947614185
  C        -5.0148823045       10.5737124517       26.8380251934
  N        -1.1943359044       16.6346851146       30.6569862628
  C        -1.8193653987       16.3913620877       32.8525535222
  C        -1.8602342888       14.2683886196       34.0639667440
  H        -1.2770797873       12.5588451219       32.7908808335
  H         7.5426832936       12.5270538074       18.7657517344
  H         7.0265341763       14.1275965140       18.1770797512
  H         8.2184928939       13.8930434758       19.5102369116
  S         3.5793592084        9.2362051163       14.6546619177
  C         3.5991018887        6.6286040315       14.1842446194
  H         4.5139283409       11.2966206477       29.8014069714
  H         4.3841810063       10.9710327176       31.3948807641
  C         5.5502663090        9.5402901240       30.3729150088
  H        -4.5904811776       11.4130917380       26.2513748468
  H        -5.5074207707       11.0717939161       27.6677322467
  C        -6.2035875875        9.9582489321       26.0774572327
  S        -1.2496945327       18.1571750580       31.2841605261
  N        -1.8040021527       17.7833516706       32.7844826361
  C        -2.1285191403       15.7364531890       34.1106585466
  H        -2.0030431321       13.6130825363       34.9349582333
  C         3.8389451576        8.6131813202       13.0461853032
  N         3.8705460301        7.2142206476       13.0138859590
  O         3.5688922430        5.4252674815       14.4470486166
  H         6.4912022439       10.0747417815       30.5894006076
  H         5.6859864304        9.2379930555       29.3950215249
  C         5.4676574348        8.3024284902       31.2654632642
  H        -5.6312579972        9.4218326271       25.3809474221
  H        -6.7468276721        9.3024647511       26.8186894816
  C        -7.1223706312       10.8671499590       25.3449924142
  C        -2.4756512518       16.5076527277       35.2816543810
  S         4.3321154176        9.4539913033       11.5336696151
  C         3.8007799958        6.4033095518       11.7635286910
  H         6.4312247032        8.1430652299       31.8213055358
  H         4.8072218119        8.5521012376       32.0483795196
  C         5.2756335880        6.9935731885       30.5178676504
  H        -6.5981101491       11.3835765267       24.5744107143
  H        -7.3700017933       11.6716443930       26.0399383998
  C        -8.4080934736       10.0397412248       24.9023943466
  H        -2.6071848463       17.5461028885       35.1198042877
  C        -2.8833085869       16.2316782698       36.5302840696
  H         4.4002588248        6.8288333507       11.0154213177
  H         4.1927681958        5.4176139806       11.9469788368
  C         2.3422183196        6.2124597368       11.3276781529
  H         4.3873078548        7.1274281817       30.0685653273
  H         5.1795696777        6.2216817987       31.2458366912
  C         6.4047131519        6.5201798352       29.5242241873
  H        -8.9325309881       10.5096903570       24.0541914190
  H        -7.9487460976        9.1457109006       24.5357156177
  C        -9.4116747129        9.6796629684       25.9968331637
  S        -3.1973722030       14.6876746316       37.2032635522
  C        -3.0733295012       17.3283465986       37.5003477651
  H         2.4504274837        5.8159684167       10.3023362436
  H         1.8933332693        5.3673498802       11.9457418138
  H         1.6659142330        7.0529282766       11.2211866727
  H         7.1365606764        7.2101766666       29.2121756957
  H         5.7859128712        6.3032539399       28.5577000679
  H         7.0011465845        5.6953218455       29.8497656951
  H        -9.1244414646        8.8290620919       26.5833852752
  H       -10.3822778175        9.4059308048       25.5848811297
  H        -9.5349853050       10.5583557427       26.6214071073
  C        -3.5249337754       15.5021441131       38.7483731156
  N        -3.5251069354       16.8938040019       38.6646443602
  O        -2.7808247824       18.5174249703       37.2898282974
  S        -4.0114949196       14.6587883137       40.2123316170
  C        -3.5862662189       17.8422825735       39.7494294726
  H        -3.8662367721       18.8245933068       39.5228287597
  H        -4.3958577286       17.3976471688       40.3032987263
  C        -2.2273121576       17.8229226047       40.5011148355
  H        -2.1242427980       16.9834070771       41.2474575050
  H        -1.3306713482       17.8938983826       39.8825137419
  H        -2.1341226374       18.6644035815       41.2418584595
