352
i=
  H         4.1830693978        1.2878565323       12.8648889309
  C         3.8767973305        2.2853558684       12.7221151241
  H         4.8219791930        2.8606429960       12.6256719436
  C         3.1111240975        2.4327115837       11.4176715007
  C         3.2382302666        2.4970599809       14.0030466536
  C         3.9505065662        2.5459652214       10.1909714462
  H         2.7237271623        3.4467659875       11.6547025728
  H         2.2959853168        1.6783223602       11.2681580693
  H         2.7255613641        3.4427963506       14.0205049491
  H         3.9638545901        2.5164900452       14.8237003556
  H         2.6029735569        1.6022291087       14.2260174271
  C         4.8633975468        1.3696726052       10.1300052768
  H         3.4492306583        2.8716060958        9.2883198864
  H         4.5412001464        3.4793247208       10.3630352142
  C         5.5590828142        1.2315876185        8.7204535943
  H         4.1722721225        0.5314884980       10.2946230319
  H         5.6670120622        1.3338735799       10.8021653498
  C         6.7770058253        2.1105168615        8.6351640860
  H         4.7370391675        1.5708245424        8.0008747702
  H         5.7071593374        0.1894624740        8.3811355317
  C         7.9847010317        1.6240242863        9.5054452533
  H         7.0178553699        2.1740109994        7.5622662982
  H         6.5480852573        3.1391119654        8.9689749401
  C         9.2392076381        2.5331225685        9.4517947791
  H         8.1763725737        0.6045978748        9.3455223212
  H         7.7395803968        1.7156156807       10.5318136548
  C         8.7796523788        3.9443000763       10.0110788333
  C         9.5957869828        3.1975354548        8.1211092583
  C        10.4538513357        1.9471954552       10.2001277509
  C         9.0597326198        5.0240448239        9.2141827623
  C         8.0735040052        4.2749682310       11.1763662808
  C         9.5903037606        4.5999579477        8.0124151145
  C         9.9766151982        2.5933723507        6.9452335843
  H        10.3377560176        1.3837569738       11.1144127227
  H        10.9184429405        1.2201192398        9.5429472828
  C        11.6167874371        2.9670935529       10.5251603694
  S         8.4439502338        6.4954360976        9.9171823528
  C         7.8846444938        5.6070155179       11.2936024659
  H         7.7065084970        3.4686093502       11.8121234175
  C         9.9371478678        5.2323080878        6.8529543101
  H         9.9894050238        1.5434327159        6.9259974211
  C        10.4344755721        3.2214923383        5.8389095380
  H        11.2200746772        3.8374309798       10.9209331873
  H        12.0792693776        3.2296324160        9.6181575499
  C        12.6678069311        2.5146718774       11.4743484152
  C         7.2936296346        6.2464653858       12.5536916596
  C        10.3331317824        4.5981991066        5.6835583672
  H         9.5985685493        6.1866539985        6.8578153993
  C        10.8478386872        2.8159525025        4.5821525954
  H        13.5289483314        3.2145386049       11.4360882336
  H        13.0986426148        1.5797269576       11.3772432161
  C        12.0350026335        2.7044224730       12.8382480478
  C         7.3129481271        7.6120071130       12.7819511571
  C         6.9762019817        5.3916470291       13.7060935731
  C        10.7008863232        5.2462047664        4.4199531121
  C        11.0554261582        3.8931685183        3.7617733916
  S        11.1937810195        1.2999378025        3.8914035835
  H        12.6667088261        3.5102346568       13.2855002809
  H        10.9657443423        3.0978458245       12.8248758453
  C        12.1415594832        1.3708925399       13.6680915696
  N         7.5172131185        8.6618458697       11.8801765180
  C         7.0684665013        8.1331131356       14.1043622232
  C         6.7359712175        5.9109136246       14.9375149626
  H         6.6709943596        4.3439904183       13.6321572167
  C        11.9933521392        6.1961229049        4.6807550357
  C         9.6126704508        6.0541370183        3.7471715477
  C        11.4321748149        3.4294581678        2.4619348379
  C        11.5880240841        2.0643264323        2.4005888807
  H        13.0907995661        1.0113262902       13.6263940885
  H        11.3715922827        0.7414573672       13.2139669544
  C        11.8478229450        1.5737334277       15.1984935299
  S         7.6059241584       10.0921947217       12.7527095352
  N         7.1350930319        9.4881490898       14.2292571175
  C         6.7812115318        7.3471396104       15.2959448263
  H         6.5975834019        5.2503164218       15.7390017799
  H        11.8101314387        7.0756171650        5.2192261010
  H        12.3223810872        6.5900233307        3.7694006183
  C        13.2100811042        5.4330464215        5.1577402470
  H         9.1902788225        6.6195459095        4.5155024749
  H        10.0071192333        6.6871532591        2.9646893720
  C         8.4659089613        5.3426323972        3.0615130025
  H        11.6201280668        4.2062883783        1.6953419289
  C        11.9606992564        1.2870785572        1.1940972260
  H        11.3285435547        2.4617811764       15.3076712093
  H        11.1659675736        0.7686177682       15.5393371561
  C        13.1233753262        1.5913422788       16.0259952428
  C         6.6170788786        7.9105106921       16.5811818563
  H        13.0980945349        5.1034292613        6.2335904590
  H        13.4513975659        4.5236940120        4.6425290661
  C        14.4848322498        6.2954042996        5.1489909184
  H         8.0650035527        4.5588958605        3.7326216386
  H         8.8315971300        4.7594098277        2.2168007299
  C         7.4715082513        6.3682211175        2.6031106142
  C        11.9063238752       -0.0858288954        0.9977530849
  C        12.3193415640        2.0314867434       -0.0374665099
  H        13.8674575520        2.2808535245       15.6106443236
  H        13.6102372677        0.6094307980       16.0570721941
  C        12.9327820621        2.0341227038       17.4777783324
  H         6.8433866944        8.9988954903       16.6003511699
  C         6.3183529232        7.4137360970       17.8273994755
  H        14.3747251580        6.8688372643        6.1309818887
  H        14.4910917815        7.1181620252        4.4791634185
  C        15.7696049100        5.5241576197        5.2242520098
  H         7.2287380007        6.9709350922        3.4359963826
  H         7.8321469636        7.1165490986        1.9867507549
  C         6.1483947540        5.7436019746        2.0734114351
  N        11.7702055938       -1.0005187720        2.0494631035
  C        12.1344764818       -0.7298785360       -0.1853280723
  C        12.5485843104        1.4139416946       -1.2197287784
  H        12.5572888967        3.0797874254        0.0765395666
  H        12.2808767472        2.9033676156       17.5740499254
  H        13.9279068050        2.2109360810       17.8389389664
  H        12.4880668712        1.1777127628       17.9827271894
  S         5.9674825310        5.7779472420       18.2108237610
  C         6.1857966246        8.3692842835       18.9098438033
  H        15.7459500828        4.6546728931        4.5624303664
  H        16.5919329784        6.1592636796        4.8572331040
  C        16.0616997238        5.0540081114        6.6350811358
  H         5.7133694615        5.1862453243        2.8228605250
  H         6.3115434122        5.1163268420        1.2183678525
  C         5.1900761554        6.7880759390        1.5447093518
  S        11.7518805474       -2.5455827381        1.4501130614
  N        12.1966592355       -2.0796375340       -0.1003261228
  C        12.3163631968       -0.0133091635       -1.4250711638
  H        13.0834324028        1.9911743636       -1.9446767961
  C         5.6493006246        6.3781691389       19.7435924968
  N         5.7029126245        7.6897978659       19.9607607242
  O         6.3481141756        9.5512420343       18.7729647135
  H        15.7285785126        5.8206926963        7.3293080250
  H        15.4176751737        4.2132483377        6.8063747599
  C        17.5486768078        4.6553152997        6.7185462639
  H         5.7052355504        7.2850895012        0.6513564315
  H         4.3111181748        6.2804013561        1.0943752265
  C         4.6235193039        7.8339581388        2.6302230292
  C        12.7363496832       -0.7254093313       -2.5975721555
  S         5.4643306367        5.4116542569       21.1817366310
  C         5.6121683005        8.4008050610       21.2195098355
  H        17.5805745399        3.8490232768        7.4464306804
  H        17.9161986685        4.1353006782        5.7991351739
  C        18.4795090835        5.7759945802        7.1509439073
  H         5.2863327074        8.3857171862        3.3610221219
  H         3.9127092983        7.2634656384        3.2332610240
  C         3.7550785115        8.8219737112        1.8389994978
  H        12.5946839958       -1.8429511507       -2.6124726715
  C        13.0866214751       -0.4010488079       -3.9274179645
  H         4.8691628835        7.8946653235       21.7591768939
  H         5.2556899332        9.3715372994       20.9819729743
  C         6.9657575224        8.4667447833       21.9158355709
  H        18.9149403110        5.4896669612        8.0859055460
  H        17.8913721626        6.7275790309        7.3891760160
  C        19.6017450857        6.1904937036        6.1458443826
  H         3.0937153481        8.3076170605        1.0996877984
  H         3.0810077789        9.2902140445        2.6447722274
  C         4.4594866402        9.9493553981        1.1092887993
  S        13.4063355356        1.1975904445       -4.4159961872
  C        13.3196263444       -1.3935645693       -4.9831368673
  H         7.5317748053        7.6021021339       21.7092354039
  H         6.7349173865        8.6356602402       22.9811643794
  H         7.5173286336        9.3335083689       21.5666440500
  H        19.5139408646        7.2185981122        5.8535372855
  H        20.6025158698        5.8962420773        6.4446500566
  H        19.5149402900        5.6625650767        5.1821710212
  H         4.7675499088        9.4838606034        0.1947121538
  H         3.8197013951       10.7644877582        0.8109391728
  H         5.3482575603       10.2870973712        1.6130250131
  C        13.9793999628        0.5739538925       -5.9371371784
  N        13.9047016096       -0.7641682541       -6.0457837143
  O        12.9946271053       -2.5791355935       -4.9116084958
  S        14.4953696252        1.5145813837       -7.3149336768
  C        14.0907420589       -1.4664450800       -7.3033715301
  H        14.4175783153       -2.4732483939       -6.9879128785
  H        15.0341563775       -1.2137965535       -7.9110436533
  C        12.8566833518       -1.5951833907       -8.2338751601
  H        13.1079358223       -1.1081743887       -9.1647973521
  H        11.8433158594       -1.2674429687       -7.7869478803
  H        12.6680927937       -2.6605403544       -8.6447063161
  H        -3.9000578945       14.2543478143       16.6269893264
  C        -3.1586142660       13.6503375462       16.1637608781
  H        -3.7920917785       12.7197461771       15.9379652851
  C        -2.0321065825       13.3569587064       17.1428840598
  C        -2.7953809403       14.2708335820       14.7918677047
  C        -2.2981805132       13.7127221416       18.6529497370
  H        -1.9840881900       12.2480014990       17.2218923750
  H        -1.1538826868       13.8327463747       16.7916971740
  H        -3.6227996584       14.6055527262       14.2449629685
  H        -2.1082542054       15.0884146756       14.8906687133
  H        -2.2660391405       13.6049557842       14.2229221831
  C        -1.7859368856       12.7102923796       19.6955086372
  H        -3.3804700288       13.8216347683       18.7003872509
  H        -1.9336019789       14.7098731159       18.9087215314
  C        -2.2600907542       13.0224476668       21.1697864511
  H        -2.1729364157       11.7259638447       19.3718184697
  H        -0.6957448743       12.5366168359       19.6198822761
  C        -1.3571104382       12.4156305564       22.2369318059
  H        -3.2566388307       12.6607294942       21.2706430537
  H        -2.2308252323       14.1146803359       21.2150494322
  C        -0.1397546155       13.3700199217       22.4164465826
  H        -1.8538703431       12.5231472097       23.1908005466
  H        -1.0883986344       11.4016711629       22.1090194421
  C         1.0855126541       12.7478432240       23.1606116440
  H         0.2012517881       13.8589616042       21.4951876763
  H        -0.5108467565       14.2014450686       22.9999657156
  C         1.5879493254       11.4721161021       22.5241097822
  C         0.8165770119       11.9829563545       24.4237714328
  C         2.2135487804       13.8389559711       23.2834968815
  C         1.3415129197       10.3311032036       23.2230053912
  C         2.0457586075       11.1920448426       21.2048692354
  C         0.9280732625       10.6193200559       24.4947885534
  C         0.3798080288       12.6029294431       25.6141681312
  H         2.4268446598       14.5626595085       22.4715054122
  H         2.0210390123       14.4790592272       24.1926010643
  C         3.6370982060       13.3351216173       23.5906871031
  S         1.8401378910        8.9529847788       22.4753951301
  C         2.2554444273        9.8458518850       21.0762583200
  H         2.2703703910       11.9337516230       20.3975409530
  C         0.5844012657        9.9437484874       25.5908894863
  H         0.2537804051       13.6663008046       25.5778783256
  C        -0.0110347329       11.8645625956       26.7128826244
  H         3.9050742086       12.4041234224       23.0246566558
  H         3.5398386967       12.8687386540       24.5944624607
  C         4.8328549470       14.3392587071       23.5970201872
  C         2.5625392445        9.1400710580       19.7588230426
  C         0.0433727521       10.5293743129       26.7882222868
  H         0.7738510896        8.9304309244       25.5933187531
  C        -0.3628833139       12.1830955013       28.0393212416
  H         5.5990527377       14.0371363494       24.3213973685
  H         4.6584165996       15.3232493259       24.0304944158
  C         5.5265225086       14.6271849698       22.2553366890
  C         2.5458789151        7.7419474534       19.4386430665
  C         2.8491783975        9.9858440269       18.5954816887
  C        -0.3727382378        9.7127129571       27.9672040264
  C        -0.5971861877       11.0216956555       28.7608459794
  S        -0.7953901594       13.6247949851       28.8655467591
  H         6.2430737843       15.4378098521       22.4083823434
  H         4.7606426466       15.0764537282       21.6682295760
  C         6.1534019380       13.3737368198       21.6142038814
  N         2.1513321572        6.7470644894       20.2803340237
  C         2.8545498481        7.2983176703       18.1496634609
  C         3.0929293049        9.5699056550       17.3006604772
  H         2.6993333369       10.9932013953       18.7770063095
  C         0.7152646581        8.8549647164       28.6109048263
  C        -1.6788071945        9.0221840625       27.5284144365
  C        -1.1379157339       11.3740846592       30.0416343783
  C        -1.2462179896       12.7067845142       30.2499195737
  H         7.1231915253       13.7217032515       21.1983504170
  H         6.3705978548       12.6275427877       22.3560193201
  C         5.3409540860       12.7406843305       20.4567207434
  S         2.0520352885        5.3497192052       19.4356719034
  N         2.5684748343        5.9543488877       17.9906130751
  C         3.1211848886        8.1191685818       17.0731034063
  H         3.0060950098       10.2464735299       16.4771727324
  H         1.2222480670        8.3005511303       27.8114014918
  H         0.3891477929        7.9633866307       29.1313787678
  C         1.6650799036        9.6534199897       29.4147138616
  H        -1.5740664045        8.3645760585       26.6698218722
  H        -2.0788234743        8.3907938593       28.3575844153
  C        -2.8967750099        9.9212381224       27.2173706373
  H        -1.2400514319       10.5565649386       30.7483839557
  C        -1.6265003633       13.3007485162       31.5803510324
  H         4.2548967993       13.0453426876       20.6048081980
  H         5.5199294541       11.6400272001       20.3898699631
  C         5.7020051277       13.3270215116       19.0845490234
  C         3.3571201147        7.4649058609       15.8854545051
  H         2.0214445094       10.4315614863       28.8043506542
  H         1.2204333477       10.0301143278       30.3622772384
  C         2.8536635387        8.7464884439       29.8115357561
  H        -2.5683955330       10.7098054099       26.4753752337
  H        -3.2608015485       10.5241738020       28.0769976977
  C        -4.1329066538        9.0839815615       26.8311457323
  C        -1.8182070281       14.6903215555       31.7847191575
  C        -1.7388524898       12.5615485187       32.8290988158
  H         5.1586047290       12.8819161248       18.2309452869
  H         5.5600307639       14.3181716564       19.0545571473
  C         7.1537942221       13.1793509683       18.7147713321
  H         3.4879356147        6.4229832213       15.9343527571
  C         3.5792073280        7.9575688649       14.6128318649
  H         3.3135938573        8.3269434144       28.9103533581
  H         2.4901689987        7.9082059707       30.3833460420
  C         3.8766575743        9.4749622502       30.6502084277
  H        -3.8184025848        8.4673341218       26.0460669891
  H        -4.4358978956        8.4732299728       27.6831206145
  C        -5.3172787904       10.0574600609       26.6026049220
  N        -1.5911328264       15.5669195404       30.7603100665
  C        -2.0892561631       15.3406100701       32.9975029138
  C        -2.0450924212       13.1494654929       34.0651124393
  H        -1.5597003048       11.5206715109       32.7521096385
  H         7.4395363511       12.1396728076       18.8581286807
  H         7.2577044146       13.3361669852       17.6615096129
  H         7.8881495457       13.8707111525       19.1812676847
  S         3.8304055012        9.5572795464       14.0314890367
  C         3.7288502599        6.8747164849       13.6150626276
  H         3.8459245279       10.5112843547       30.2951082737
  H         3.5705443995        9.6081143533       31.7712723214
  C         5.3379073864        8.9946340701       30.5984814392
  H        -4.9023494601       10.8111685428       25.9228050554
  H        -5.4405727941       10.5772563257       27.5394525541
  C        -6.5223357366        9.3662783921       26.0705646542
  S        -1.6262552576       17.0818925143       31.3647713198
  N        -2.0766455002       16.6979980895       32.8482292484
  C        -2.2924145754       14.5948490963       34.2040003859
  H        -2.0161213417       12.5112797392       34.9169896025
  C         4.0396958394        8.7856125129       12.4569661940
  N         3.9982212563        7.4316320388       12.4062561142
  O         3.6747124932        5.6437420898       13.8183067136
  H         6.0390174681        9.6221108559       31.3054987842
  H         5.6600838118        9.1266960786       29.5580771185
  C         5.4754087045        7.5908774727       31.2170413252
  H        -6.1525432230        8.6667864265       25.3617586112
  H        -6.9986587948        8.6321552869       26.7160982803
  C        -7.5329897172       10.3237274357       25.4158816283
  C        -2.5322936631       15.3400644553       35.3818721906
  S         4.4498990846        9.8451329894       11.0452188138
  C         4.1842050805        6.6664235966       11.1890710073
  H         6.0402689386        7.7871482675       32.1403786476
  H         4.5887688902        7.1530150423       31.5159982063
  C         6.4496014751        6.8067778328       30.3438663849
  H        -7.0206869150       10.7384071572       24.5302061528
  H        -7.7055668084       11.1550978649       26.1027818597
  C        -8.8525877956        9.4935771143       24.9961518506
  H        -2.2927785108       16.4103034854       35.2378219300
  C        -3.0628178045       14.9727712162       36.5949381351
  H         4.8578995372        7.1562571534       10.4623029417
  H         4.5871982545        5.7202279990       11.4632309085
  C         2.8614855995        6.3353348742       10.5730556936
  H         7.4429450637        7.2681196553       30.2733271441
  H         6.0768058881        6.7395708269       29.3326435062
  C         6.5029860308        5.3202455804       30.8059989731
  H        -9.2824283470       10.0273350010       24.2000105606
  H        -8.5910887211        8.4877401652       24.7173418977
  C        -9.9342095895        9.5767873528       26.0594455380
  S        -3.6160827255       13.4040940463       36.9925525716
  C        -3.1523811085       15.9079362129       37.6957152409
  H         2.9037063910        5.3980588614       10.0342547393
  H         2.0357948661        6.1193685511       11.2876883009
  H         2.4682264956        7.0969706771        9.9112860550
  H         6.9916980131        4.6407214903       30.1418849125
  H         5.5048486135        4.9126760733       30.7925105123
  H         6.7778172648        5.2345472739       31.8224423651
  H       -10.8082029131        9.0392142008       25.8367308624
  H       -10.3451571827       10.5452784109       26.3326347655
  H        -9.5494460372        9.2896257172       26.9886884280
  C        -4.1048286954       14.0842092442       38.5925477224
  N        -3.8269710990       15.3605596177       38.7551367061
  O        -2.7525395141       17.0456990106       37.6389670593
  S        -4.7761481164       13.1900734954       39.9367053328
  C        -4.0072503127       16.0866827290       39.9220414775
  H        -4.3518439665       17.1206312964       39.6340730788
  H        -4.8775968702       15.7236841240       40.4524498825
  C        -2.6823097143       16.1325343231       40.7224324628
  H        -2.8719067581       15.7195900125       41.7056439896
  H        -1.9618814675       15.4843458098       40.3294184482
  H        -2.1405309472       17.1068719720       40.7541081954
