352
i=
  H         3.8054231114        2.1336728699       12.1368420621
  C         3.4936733748        3.1583041858       12.3553848408
  H         4.3930258353        3.6232687404       12.7177383277
  C         3.2010016368        3.8008581057       10.9766472748
  C         2.3324005626        3.2460844622       13.2780204623
  C         4.4704509838        3.9702191569        9.9808067927
  H         2.8361969893        4.8008980857       11.2375558946
  H         2.3783348639        3.2026690161       10.4986045543
  H         1.8876778346        2.2809794517       13.1578271548
  H         1.7659105951        4.0811109728       13.0497154956
  H         2.7022142392        3.3887150557       14.3175355311
  C         4.8662236928        2.6383201737        9.3355234439
  H         4.1904886044        4.7510252664        9.2760073170
  H         5.4162164167        4.2033134569       10.4705192129
  C         5.5174402453        2.7716436442        7.9359573835
  H         3.9598762514        2.0723707264        9.4302484238
  H         5.5948057326        2.2540954397       10.0300648948
  C         6.8332639736        3.5477215429        8.0059049986
  H         4.7863422402        3.1406357953        7.2068072483
  H         5.7981728968        1.7367814186        7.5890399740
  C         8.0474303287        2.7858602628        8.6607857464
  H         7.1958761615        3.9832382522        7.0790003138
  H         6.6791325560        4.4843785196        8.5738410894
  C         9.3196483530        3.5995386157        8.8405379722
  H         8.2356769917        1.9690405030        7.9983987782
  H         7.7842888796        2.3814430439        9.6200327215
  C         8.9929907981        4.8912269932        9.4933094809
  C         9.7210372162        4.2496746136        7.5500079348
  C        10.3771609662        2.7613941851        9.6475239862
  C         9.2633979785        5.9814360792        8.7318598723
  C         8.5322777821        5.2248705678       10.7912370548
  C         9.8611080441        5.5742239006        7.5249693975
  C        10.2292570338        3.6017336078        6.4328290044
  H         9.8345548511        2.4322224808       10.5186067964
  H        10.6196381313        1.8855956125        9.1252035434
  C        11.6582362501        3.5102035321       10.0010408124
  S         8.9073015632        7.5211324934        9.4962405526
  C         8.3101652870        6.6048551544       10.9117669920
  H         8.3166657613        4.3846445503       11.4448126403
  C        10.3367437550        6.2501816332        6.4369410534
  H        10.0937034922        2.5504557809        6.3532465979
  C        10.7568549159        4.1983898160        5.3363608708
  H        11.3604057512        4.5297052705       10.3284248628
  H        12.1851316144        3.5057081640        9.0426463289
  C        12.6574782085        2.8172892190       10.8726828701
  C         7.8456597054        7.3213678996       12.1319841408
  C        10.7561182380        5.5666481956        5.2736292150
  H        10.3007093097        7.3109548189        6.3858425907
  C        11.2418306674        3.7816623346        4.1685626329
  H        13.5359303327        3.4664580606       10.7368719725
  H        12.9590344891        1.8620127698       10.3951485586
  C        12.2986430136        2.7522517237       12.3476641133
  C         7.8912378457        8.7239309857       12.3976618012
  C         7.4175184125        6.3929722537       13.2254460455
  C        11.1862785302        6.2803711424        4.0095914389
  C        11.5569965367        4.8865507971        3.3372235918
  S        11.3537580192        2.2469058150        3.4057095433
  H        11.6941837337        3.6895627751       12.5411102244
  H        11.6793890199        1.8651955739       12.7227453599
  C        13.4578674242        2.8828745929       13.3779016342
  N         8.2023680059        9.7260934820       11.4565101642
  C         7.5532446092        9.2014508891       13.6812079335
  C         7.1670452579        6.9275947488       14.5007016700
  H         7.1689831672        5.3544540845       13.0226715833
  C        12.4366207965        7.1403722100        4.3439633091
  C        10.0932462656        7.0978199976        3.2013810516
  C        11.9399616296        4.4467022796        2.0186818049
  C        11.7894452035        3.0914839728        1.8800857320
  H        13.2053511642        3.7563021814       14.0320572779
  H        14.3620983019        3.1805561933       12.7875233455
  C        13.7194480087        1.6954257277       14.3401929655
  S         8.0183516812       11.1906983048       12.2351266755
  N         7.6017532797       10.6334854295       13.7145530373
  C         7.2353948168        8.3542928219       14.8057939447
  H         6.8659713249        6.2126689463       15.2729424370
  H        12.1768858265        7.9354590198        5.0818106476
  H        12.8861373003        7.6622792844        3.5076014944
  C        13.5610287332        6.3628514243        5.0525485457
  H        10.0465026486        8.1024135797        3.5748510300
  H        10.4994678542        7.3730469423        2.2380047562
  C         8.7029798616        6.4482763250        2.9165340853
  H        12.2042774490        5.1925089384        1.2043327421
  C        12.0876319688        2.3319343332        0.6308662036
  H        13.8137866469        0.6823493148       13.8928742033
  H        14.6771381373        1.7936145946       14.7373804598
  C        12.7477500386        1.7134000160       15.5365197472
  C         6.9757835924        8.9940937445       16.0780198010
  H        13.2168625211        6.1485005790        6.0727479502
  H        13.6739643599        5.3535936071        4.5776637845
  C        14.9103404460        7.0671097812        5.1208472055
  H         8.1130951775        6.2951921343        3.7759957783
  H         8.8613804123        5.4897331636        2.5347762393
  C         7.8275718457        7.2020845723        1.8693698993
  C        12.3487507708        0.8848673284        0.5290416154
  C        12.0699692405        3.0365302877       -0.6836605026
  H        12.5400767312        0.7011553072       15.7365446275
  H        11.7536689890        2.1019603761       15.2115987702
  C        13.1421201820        2.4686382863       16.7748556107
  H         7.0569113247       10.0681682584       15.9994991516
  C         6.7174961391        8.4801199313       17.3561421403
  H        14.8639764821        7.8876452491        5.7820241232
  H        15.2998589610        7.5354552239        4.2127316908
  C        15.8915057868        5.9402093559        5.6723047025
  H         7.4545892860        8.0858128762        2.2847144488
  H         8.3298737795        7.3691339677        0.9168150612
  C         6.6481866583        6.3894074089        1.5065790661
  N        12.4037261790       -0.0798646162        1.5791784371
  C        12.5431566674        0.2284685084       -0.7032771269
  C        12.3196719121        2.3901160782       -1.9210973248
  H        11.8547975295        4.0992440517       -0.6831008285
  H        14.1713511974        2.8078041308       16.8588621550
  H        12.7968157009        1.9489654750       17.7133491324
  H        12.7321765599        3.5291708523       16.7501748300
  S         6.6285919756        6.7620161012       17.6958166949
  C         6.6768508798        9.3827574925       18.5694116811
  H        15.6240135272        5.4592332421        6.6032749335
  H        15.9054256238        5.0988253807        4.9496983187
  C        17.2330520107        6.5695367314        5.8064135815
  H         6.2565566804        5.8039592327        2.3160568584
  H         6.9293808071        5.6579950947        0.7668589520
  C         5.5289346540        7.3435296552        1.1201884719
  S        12.3872545271       -1.5966060337        0.9772591479
  N        12.6862522973       -1.1663503414       -0.5647351663
  C        12.5911560832        0.9224067626       -1.9674738923
  H        12.2795656492        3.0123699016       -2.8099062273
  C         6.3132526634        7.2819674130       19.3713249759
  N         6.4682992848        8.6114317730       19.6278261779
  O         6.7872029582       10.6024144726       18.5969230202
  H        17.6958810112        6.6371136437        4.8015710934
  H        17.1388979044        7.5751526850        6.1836635808
  C        18.0566249654        5.8639819120        6.8100664735
  H         5.7696854027        8.0594237431        0.3551637198
  H         4.8486774942        6.7016879582        0.5190253724
  C         4.7564878053        7.9450044179        2.2643303153
  C        12.9706104489        0.1788108383       -3.0946222910
  S         5.9883070212        6.1664203105       20.7066129335
  C         6.5444485786        9.2202275667       20.9467845329
  H        17.4575005010        5.3879621708        7.6813225605
  H        18.2953174149        4.9781421046        6.2603317705
  C        19.4240751480        6.5100552005        7.2703752597
  H         5.4475017577        8.1841364515        3.0805825956
  H         4.1291268104        7.1773393468        2.6964246426
  C         3.9652390156        9.1745293373        1.9207463598
  H        12.8548752252       -0.9034384573       -3.0710242040
  C        13.5048036783        0.5196871501       -4.3366238092
  H         6.1761860839        8.5297929226       21.7185895393
  H         5.8892153946       10.1133799570       20.8752392858
  C         8.0095509797        9.5248264819       21.3055402489
  H        19.8266546757        5.8770767174        8.0113253655
  H        19.3673057286        7.4729349312        7.7634038779
  C        20.4324384042        6.4429289223        6.1358871656
  H         3.2977902315        8.9439458679        1.0581990595
  H         3.2600112489        9.3519413478        2.7578929485
  C         4.8802996469       10.3305395324        1.4358082715
  S        13.9705088911        2.1424821584       -4.7899238468
  C        13.6214858429       -0.5332637256       -5.2911832045
  H         8.7506482267        9.3819096456       20.5404795753
  H         8.2555346617        8.8949243085       22.1274763117
  H         8.1801148800       10.5444938728       21.6693452770
  H        20.4981638885        5.4071699376        5.8626515286
  H        20.2345909449        7.1185642352        5.3104352786
  H        21.4652345664        6.7278464146        6.3862831763
  H         5.9752280301       10.1027619178        1.3829399934
  H         4.5677742085       10.6360881258        0.4157010541
  H         4.7518357846       11.1811561663        2.1361911006
  C        14.3559082524        1.4047107208       -6.3469085074
  N        14.2193200535        0.0322604977       -6.4026879088
  O        13.1535498595       -1.6701137130       -5.1305867825
  S        15.0527474459        2.1755683959       -7.7919306028
  C        14.3277433523       -0.7951998756       -7.6051424805
  H        14.5827361995       -1.8772004443       -7.2834568495
  H        15.0974152692       -0.5246106776       -8.3122978568
  C        13.0043981823       -0.7503619723       -8.4220246589
  H        12.9134293749       -1.6262282979       -9.0289399058
  H        12.9475614516       -0.0257273153       -9.2548550199
  H        12.0656442453       -0.7740302781       -7.8297798976
  H        -4.0058457453       14.5129014934       16.2391852809
  C        -3.3096095236       13.7277470776       16.0937866216
  H        -3.9569959581       12.8416246502       16.3022125827
  C        -2.1825189202       13.8993966894       17.1968886142
  C        -2.8659028071       13.8007964991       14.5898932087
  C        -2.6491711283       14.0066635391       18.5858428236
  H        -1.5419129163       13.0575801504       17.0251187645
  H        -1.6041881930       14.8455407989       17.0243621850
  H        -2.0039862660       13.2752826393       14.3909259198
  H        -3.7045272037       13.4531007088       13.9526225337
  H        -2.7100545562       14.8377454930       14.3313342826
  C        -1.5551264726       13.7395085136       19.5013557871
  H        -3.4342337800       13.2948102266       18.6412541715
  H        -2.9852034389       15.0153683777       18.6848083856
  C        -2.0249134239       13.7575301963       20.9515090136
  H        -1.0755306162       12.7817951271       19.3675590288
  H        -0.7156703905       14.4646320727       19.3401219273
  C        -0.9651382419       13.1486250576       21.9642660586
  H        -2.9226700555       13.1352725470       21.0407099393
  H        -2.3154925409       14.6831796201       21.4421992613
  C         0.2257996079       13.9448088133       22.2165148323
  H        -1.4331594598       12.9927739483       22.9556190484
  H        -0.6382679945       12.1975921303       21.5227315579
  C         1.3514672566       13.2280388207       23.0257988646
  H         0.6375125313       14.3190645469       21.2502244884
  H         0.0185386895       14.7804344675       22.8393196480
  C         1.7446365056       11.9112493241       22.3677741589
  C         0.9240100898       12.4665977235       24.2594943304
  C         2.4953576321       14.2034515143       23.2446936999
  C         1.5569275892       10.7784665256       23.1783704507
  C         2.2929034087       11.5482189599       21.1244948748
  C         1.0879872202       11.1583612729       24.4015940546
  C         0.3658863287       13.0958658082       25.3505688803
  H         2.6455410555       14.8861897431       22.4556829403
  H         2.2296869517       14.8574281823       24.1407888303
  C         3.8346058164       13.3826772534       23.6462862923
  S         2.0286511390        9.3079492428       22.5740696291
  C         2.4737062814       10.1768650359       21.0712659486
  H         2.4361459351       12.3445882852       20.4295325208
  C         0.8011494883       10.6010130680       25.6329995214
  H         0.3447663710       14.1744509836       25.2795737551
  C         0.0894089092       12.5476464865       26.5892777516
  H         4.1849995317       12.5864132075       22.9996865210
  H         3.6227264989       12.8450731965       24.5139207275
  C         5.0753648604       14.2999711598       23.8201742797
  C         2.9053850398        9.5750441417       19.7434363882
  C         0.1902006907       11.2306193184       26.6714093106
  H         0.9239738136        9.5278277914       25.7541561326
  C        -0.2386248729       12.9776925762       27.8580590179
  H         5.8799410883       13.8740813656       24.3728726731
  H         4.7656714771       15.0599519484       24.5751643706
  C         5.5637744648       15.0266173756       22.5337401803
  C         2.9074284666        8.2023407729       19.3859004200
  C         3.3197689225       10.4573432773       18.6466134770
  C        -0.2450301341       10.4905322041       27.9602969448
  C        -0.5042112730       11.8710776404       28.6543933700
  S        -0.5730345023       14.5182680886       28.6404610305
  H         6.2131018243       15.8749817788       22.9370823580
  H         4.7982594099       15.5814482249       21.9543409943
  C         6.4067104293       14.2709567331       21.5601529508
  N         2.6909082283        7.1843889137       20.2990509119
  C         3.2107587139        7.6912003494       18.1415768597
  C         3.5776790109        9.9688379994       17.3868168672
  H         3.6649157577       11.5211288732       18.7792831683
  C         0.8718393715        9.5477714073       28.4699605766
  C        -1.5829963078        9.8307473339       27.6658775316
  C        -0.9540836610       12.2888328019       29.9901051159
  C        -1.0379861586       13.6251927402       30.0877940261
  H         7.4857200017       14.7246672737       21.6036232151
  H         6.4981035092       13.2556852689       22.0240913576
  C         5.8651057940       14.0811887814       20.1360272852
  S         2.8909003111        5.7273855617       19.5208483109
  N         3.3667471212        6.2846626331       18.0868007158
  C         3.4308477753        8.5215400633       17.0834485421
  H         4.0770543268       10.5845381103       16.6726170011
  H         0.9636890130        8.6735540363       27.7932002969
  H         0.4383754990        9.1962616280       29.4288473024
  C         2.2699572789       10.2253837747       28.7210467057
  H        -1.4215472345        8.9922541952       27.0412837390
  H        -1.7765261053        9.3513096455       28.7095316271
  C        -2.7040243992       10.6960065569       27.2388476062
  H        -1.3268938401       11.6022081853       30.7521132530
  C        -1.6040871669       14.3711595419       31.2763250800
  H         5.3354441318       14.9521687837       19.8421382132
  H         5.1673638283       13.2566616065       20.1132796950
  C         7.0127156670       13.7956502581       19.1103304467
  C         3.6681630228        7.9331158023       15.8173337365
  H         2.6750193780       10.6271672919       27.7568848562
  H         2.1138463541       11.0776759401       29.3511563845
  C         3.2350035612        9.2186373486       29.2757333396
  H        -2.5883400417       11.3078841803       26.3328865618
  H        -2.9843389294       11.4203956664       28.0014272060
  C        -3.8810918424        9.8538982389       26.9783464867
  C        -1.6632836547       15.7842885953       31.3964555158
  C        -1.8022112072       13.5927432683       32.5283567694
  H         7.7198723774       14.5434869994       19.3117621434
  H         7.5704953232       12.8872776131       19.3319391816
  C         6.6256296884       13.8120632747       17.5760714862
  H         3.5223529131        6.8991667887       15.8536789519
  C         3.9514742699        8.4262177471       14.6191272854
  H         3.3972965634        8.3436727197       28.5501715278
  H         2.7902873132        8.9431432635       30.2781166688
  C         4.6507974172        9.8511191999       29.5863081134
  H        -3.5537576558        8.9049173822       26.4617262918
  H        -4.3920263814        9.5156752371       27.8135371974
  C        -4.8981945504       10.5918457576       26.1128558208
  N        -1.4723222132       16.6435928104       30.3981502219
  C        -1.9705995324       16.4248197213       32.5775078034
  C        -2.1388469184       14.2610353099       33.7403287094
  H        -1.6509142200       12.5290560989       32.5449340589
  H         6.5843945983       14.8045380317       17.1413305873
  H         7.3658704553       13.2688000843       17.0306691088
  H         5.7174157076       13.2921516544       17.5154409034
  S         4.2656898701       10.0797775910       14.2005023304
  C         3.9574394562        7.5279545939       13.4678419433
  H         4.7137745762       10.6827758104       28.8525014748
  H         4.7584352720       10.2832372290       30.6009864555
  C         5.8734895879        9.0015245714       29.4159400319
  H        -4.4414159988       10.8208264808       25.1483721332
  H        -5.0324619168       11.6189940321       26.4770246998
  C        -6.1862370875        9.8295654359       25.7347984687
  S        -1.4782984437       18.1665880112       30.9972526873
  N        -1.9367924987       17.7878583213       32.4731185533
  C        -2.2770476508       15.7064551993       33.7573220680
  H        -2.0910742055       13.6513870512       34.6393933401
  C         4.4319614010        9.4904840403       12.5675684228
  N         4.3305487641        8.1764512302       12.3555198821
  O         3.9149897217        6.3212777507       13.5561627275
  H         6.7311066283        9.5727844579       28.9620708655
  H         5.7830703601        8.3317267485       28.4954580765
  C         6.3249797056        8.2039348620       30.6258722741
  H        -6.1244043788        9.3231423385       24.7990445379
  H        -6.4206669898        9.2124084967       26.6228866597
  C        -7.2750186774       10.8370179545       25.4958427545
  C        -2.6190509121       16.4442928455       34.9123449429
  S         4.8471376672       10.4399733794       11.1548678859
  C         4.2566970224        7.5567689246       10.9718633280
  H         7.3019255931        7.7938420800       30.4362177739
  H         6.3812445490        8.7364905524       31.5607826754
  C         5.3546084167        6.9847629170       30.8403150352
  H        -6.9688472241       11.4824183763       24.6465469811
  H        -7.4122266263       11.5537547671       26.3455460521
  C        -8.6162173901       10.1812606756       25.1342130437
  H        -2.0141275989       17.3140630168       35.0095750474
  C        -3.2848717335       16.0701002151       36.0440230607
  H         5.0051636648        7.9723102113       10.2928166105
  H         4.5858950027        6.5456039695       10.9773817842
  C         2.8512362192        7.6620605049       10.3400675986
  H         5.2829779735        6.4227394223       29.9283100788
  H         4.3109545162        7.1389887146       31.0771574343
  C         5.9976879273        6.0014686690       31.7905630907
  H        -9.0292735800       10.8687634448       24.3388802351
  H        -8.4497383665        9.2234115180       24.6805366319
  C        -9.5210136356        9.9323215149       26.2829538563
  S        -4.1175423290       14.5615082216       36.3214347587
  C        -3.2883112697       17.0119128533       37.1883795338
  H         2.0560941470        7.1142540559       10.8671456895
  H         2.5679891183        8.6902258917       10.4218431334
  H         2.7875692326        7.3851708258        9.2898147198
  H         5.9521895135        6.4458986150       32.7911705733
  H         7.0416144551        5.7907573068       31.5114492401
  H         5.5918737388        5.0276422431       31.6930246560
  H        -8.8471547206        9.2358997322       26.7550928200
  H       -10.4932886743        9.4993963910       26.1355287155
  H        -9.6875307348       10.7390592967       26.9414495774
  C        -4.3826929780       15.1888571288       37.9141499834
  N        -4.0141999417       16.4321645096       38.1807305143
  O        -2.7815932424       18.0847171613       37.2248637141
  S        -5.2955707535       14.3040220022       39.1520463631
  C        -4.1043792307       17.2207715601       39.4648228678
  H        -4.0441337313       18.3276186386       39.2438266757
  H        -5.0701407721       16.9191498991       39.9945348190
  C        -2.9261449853       16.8720604174       40.4001160745
  H        -2.4116090434       16.0102870410       40.0302956004
  H        -2.2716353564       17.7169972465       40.5313400324
  H        -3.3985197469       16.6042213342       41.3523495368
