352
i=
  H         4.7051180325        1.1167057983       12.8497461135
  C         4.0178458071        1.9248231098       13.0827778499
  H         4.6557551662        2.8367680122       13.2375876556
  C         3.1537431463        2.1525098061       11.8413729189
  C         3.2455174415        1.6917328823       14.4320142023
  C         4.1002235383        2.3157988075       10.6187446776
  H         2.6467615876        3.1008890215       12.1880622435
  H         2.4740666219        1.2956269671       11.7239395356
  H         2.4965582046        2.5182651463       14.6547827977
  H         3.9875172563        1.5772449310       15.1756009343
  H         2.6828499572        0.7545100058       14.2443746654
  C         4.4815316811        0.9317888287        9.9411193815
  H         3.6181567407        3.1004137455        9.9609173918
  H         5.0438122084        2.7083001238       10.9067005991
  C         5.1544306476        1.0720787158        8.5869871192
  H         3.5781550508        0.3817640965        9.8046384324
  H         5.1434950304        0.4540884418       10.6967706284
  C         6.3542542796        2.0350754775        8.4184669856
  H         4.3581889153        1.3415081909        7.9236910066
  H         5.2794139356        0.1023292503        8.1683362643
  C         7.6519761617        1.5570932433        9.0632448026
  H         6.4258450591        2.3509478119        7.4197832850
  H         6.1225352951        2.8315877269        8.9760057113
  C         8.7527749405        2.6011468144        9.3301482018
  H         8.0980441603        0.8641214699        8.3344404039
  H         7.4353268622        0.9865468291        9.8752620915
  C         8.2239910946        3.9284735593        9.8871802511
  C         9.1633949317        3.3096244996        8.0411092892
  C         9.9834967771        2.0660722983       10.1419284837
  C         8.5109895518        5.0308263670        9.1002115713
  C         7.6075907915        4.3233005882       11.0920025261
  C         9.0678528256        4.6492407892        7.9437296329
  C         9.5451200969        2.6944984489        6.8315244680
  H         9.5161966010        1.7588446345       11.0785872716
  H        10.4713041276        1.3489652472        9.4794249049
  C        11.0914133978        3.1388835029       10.2832493697
  S         8.2974897160        6.5378458648        9.8099685686
  C         7.5946146421        5.7105213341       11.2216451206
  H         7.3514669991        3.5406652742       11.7207874640
  C         9.5353435327        5.3223303414        6.8282756602
  H         9.6960208950        1.6464883762        6.7316534341
  C         9.9149126337        3.3621092337        5.7058172709
  H        10.5833344476        4.0085170997       10.7492409928
  H        11.4998383321        3.4943380441        9.3083795420
  C        12.2279586414        2.8390500874       11.2598961582
  C         7.2501359308        6.4976018307       12.4253580106
  C         9.9952257854        4.6927292488        5.6783166380
  H         9.5678091962        6.3687953384        6.7686091884
  C        10.3682342972        3.0058868311        4.4099604613
  H        13.1032254156        3.4841943870       11.0244396723
  H        12.5591058655        1.8912196013       10.9352814285
  C        11.6469550835        2.9376958386       12.6289963026
  C         7.3043836656        7.9117514678       12.6053030066
  C         6.7686221211        5.6513216260       13.5619116215
  C        10.4287205578        5.4681829744        4.4688096965
  C        10.6945377078        4.1734072602        3.7025798152
  S        10.6778259925        1.4524744027        3.6415332988
  H        11.9209532676        3.9552423336       13.1013019669
  H        10.5003306022        2.9508508905       12.4999804030
  C        12.1350879745        1.8867339385       13.6483602121
  N         7.5148055439        8.8499939574       11.6406196807
  C         7.1618910566        8.4096250316       13.8751002732
  C         6.7650890710        6.2233695246       14.8699723889
  H         6.5809917890        4.6420393677       13.4771015862
  C        11.7230944476        6.2492492254        4.6227213732
  C         9.2606227860        6.2775394108        3.8384143833
  C        10.9613946201        3.7608766050        2.3610323095
  C        11.0980456354        2.3972870719        2.1893501348
  H        13.0683819458        1.4646963581       13.2785969784
  H        11.5411106888        0.9421219577       13.5772576838
  C        12.4325268614        2.4560631160       15.0018155405
  S         7.4109208688       10.3192182377       12.3218409345
  N         7.2839344129        9.7676342108       13.9008647167
  C         7.0019017837        7.6907662046       15.0072363424
  H         6.4756586381        5.5359432096       15.6880595809
  H        11.7064535892        6.8440492657        5.4664259495
  H        11.8942644525        6.8722853703        3.7952966089
  C        12.9620939091        5.4058809181        4.6189566399
  H         8.9058648676        6.9695634304        4.5705648679
  H         9.6788354322        6.7786962515        2.9536364843
  C         8.0164336467        5.4534979813        3.4673731483
  H        11.1260341698        4.5446676789        1.5827671198
  C        11.5659401376        1.6238844518        0.9708025752
  H        13.4618575170        2.9173512296       14.9076430346
  H        11.7706943818        3.2851896603       15.3069693561
  C        12.6147246989        1.4551327278       16.1942805575
  C         6.9889915237        8.4182801137       16.2496754612
  H        12.8771933277        4.6583273477        5.4049951927
  H        13.0898596759        4.9194589157        3.6851865595
  C        14.2014884321        6.3248263217        4.7860766583
  H         7.5772747746        4.9303700263        4.3084728877
  H         8.2813388529        4.6691443871        2.7570217880
  C         6.8119381547        6.2716505238        2.8399401259
  C        11.6787239425        0.2026882519        0.7886349200
  C        11.8463220206        2.3698582525       -0.2708777267
  H        13.5400467680        0.8534595132       16.0673383676
  H        11.7115347140        0.9077880933       16.3447064819
  C        12.8294252585        2.1148740407       17.5746572003
  H         7.2686145390        9.4518779219       16.2640487099
  C         6.6626966023        8.0482844301       17.5039402427
  H        13.9995483863        7.1292946482        5.5591539006
  H        14.2682163515        6.9777824099        3.9267592853
  C        15.5457486118        5.7822692747        5.0677073078
  H         6.4015805272        6.9363856098        3.6640725615
  H         7.2834291677        6.8262259676        1.9853916706
  C         5.6557260178        5.2260163885        2.4017875932
  N        11.4593452404       -0.7596811600        1.8009706248
  C        11.9891370600       -0.4103869588       -0.4601944085
  C        12.3038420947        1.7939112123       -1.4652894573
  H        11.8128722554        3.4967035542       -0.2849948803
  H        11.7454747931        2.2784023431       17.8508534877
  H        13.4074767329        3.0514666331       17.6336945718
  H        13.4066465187        1.3810955991       18.2126527197
  S         6.2980039009        6.4226381756       18.0335986768
  C         6.4815736797        9.1159430612       18.5484231527
  H        15.5153082371        4.8352141223        4.5918874728
  H        16.4171604704        6.2528119067        4.6487627490
  C        15.7985761226        5.4410941475        6.5678316429
  H         5.2535571143        4.8718609736        3.3332080487
  H         6.1405665002        4.4167041591        1.8555504210
  C         4.5282235565        5.7278410392        1.5210780276
  S        11.4244408182       -2.2640572860        1.1053311478
  N        11.8802022061       -1.8150017616       -0.4184702043
  C        12.3938640729        0.3578620546       -1.6043806053
  H        12.7363515082        2.4158720474       -2.2256537301
  C         5.9418811390        7.1359451079       19.6340784149
  N         6.1092632524        8.4686270118       19.6685499149
  O         6.8433778735       10.2853648456       18.4273298703
  H        15.8760108192        6.3673436457        7.2025588179
  H        14.9929204661        4.7413722891        6.8247966085
  C        17.1099982691        4.7298467036        6.8538054068
  H         4.9195249132        6.0329606392        0.5164392344
  H         3.8634296627        4.8458401625        1.3072390175
  C         3.7079148837        6.7323488926        2.2516127935
  C        12.7442939963       -0.4005623490       -2.7751754806
  S         5.5399593408        6.3403275246       21.0622947193
  C         5.8531434310        9.2400221781       20.8413619547
  H        16.8186777817        4.1147874050        7.7696612355
  H        17.3132189570        4.1301465417        5.9190859740
  C        18.2999346328        5.5437734669        7.2018585027
  H         3.3310463678        6.3577966461        3.2176984440
  H         2.8964328704        6.9024965964        1.5079500504
  C         4.4042504464        8.1198167732        2.1458176886
  H        12.5811401592       -1.5039879435       -2.7228816845
  C        13.3491198083       -0.0495537412       -4.0180067842
  H         4.9339366232        8.9935707341       21.3374162350
  H         5.8115898127       10.3133094807       20.6095654687
  C         6.9774239090        8.9978598381       21.8281801094
  H        18.7574248991        5.2895655282        8.1224550037
  H        18.1051650902        6.5695245777        7.3018226802
  C        19.4428397896        5.4983467882        6.2181519831
  H         4.6498900376        8.3555876452        3.2027970080
  H         5.2995733785        7.9708775805        1.6041697490
  C         3.5240748931        9.2293451997        1.6034608529
  S        13.8162617949        1.4803176756       -4.6070991828
  C        13.4912973470       -1.1672177812       -5.0374788448
  H         6.6854754056        8.1843276870       22.5681891128
  H         7.2039938228        9.9248171023       22.3863632588
  H         7.9009721419        8.7026624000       21.3580446664
  H        19.2209084435        5.1943632955        5.1810818822
  H        19.8915779422        6.4379195867        6.1590337837
  H        20.2111393996        4.7851013550        6.5545686933
  H         4.0361322178       10.1562629895        1.7472967536
  H         3.2730314428        9.0793294205        0.5644090557
  H         2.6406427625        9.3248663475        2.2341561406
  C        13.9578562768        0.8150317405       -6.2290802225
  N        13.8842906228       -0.5475386468       -6.2270602508
  O        12.9998497249       -2.3036553234       -4.9067712436
  S        14.7744147099        1.6848331131       -7.5866754298
  C        14.1512717247       -1.3872482275       -7.4286568983
  H        14.0701637727       -2.4544900740       -7.1592600118
  H        15.1606353280       -1.2452803913       -7.7733912333
  C        13.0971461492       -1.2345138724       -8.5227126412
  H        12.1201273804       -1.1410807731       -8.0736187417
  H        13.1880486852       -2.1350491235       -9.2032948581
  H        13.3389227755       -0.3748145924       -9.1612847760
  H        -1.5893687876       14.5018317248       15.7933377811
  C        -2.1757191454       14.1005249283       16.6046943147
  H        -2.7347530298       14.9422950985       16.8931617999
  C        -1.1449959135       13.6853573331       17.6688835272
  C        -3.1519107248       13.0237303474       16.0974727779
  C        -1.5439217666       13.9671100044       19.1290635919
  H        -0.8694920799       12.5816321068       17.5061933195
  H        -0.2375280933       14.2539591313       17.4040324017
  H        -3.8215529555       12.5991766889       16.8430253594
  H        -3.8723013793       13.4878503149       15.3772989687
  H        -2.5745406108       12.2103599203       15.6860983130
  C        -1.8940235500       12.7184662262       20.0212238606
  H        -2.3558605657       14.7017067263       19.0832500581
  H        -0.7212961861       14.4497133390       19.6150514430
  C        -2.2105141369       13.1463126897       21.4846848374
  H        -2.7680728336       12.2885492223       19.6375212833
  H        -1.1713304398       11.9120970085       19.8320703393
  C        -1.1935477010       12.6189643059       22.4642129166
  H        -3.1958848249       12.7993898888       21.8040165467
  H        -2.3330380989       14.2435355398       21.6560926843
  C         0.0276926058       13.4891707316       22.4994768947
  H        -1.5943852826       12.4897137781       23.4623610906
  H        -1.0059013332       11.6305905746       22.1395879641
  C         1.1368762287       12.9181670033       23.4609246586
  H         0.4483604833       13.6645390553       21.5504520039
  H        -0.2199958179       14.4705122905       22.8362079459
  C         1.4495591829       11.6394769357       22.7841681539
  C         0.6831960713       12.2171110694       24.7372203022
  C         2.3223359473       13.8612348650       23.6891806769
  C         1.2490677005       10.5035617327       23.5929564237
  C         1.9119014775       11.2443980798       21.5024138000
  C         0.8409932687       10.8716637296       24.8549719672
  C         0.1686250090       12.8749136707       25.8505293013
  H         2.5009132624       14.4727527637       22.8724833944
  H         2.1699103455       14.4685493737       24.5990533865
  C         3.6401549145       13.1496126583       23.9429722919
  S         1.7250123546        9.0859895786       22.7960218947
  C         2.0919982005        9.9029158064       21.3812095179
  H         2.1488836590       11.9911349260       20.7273179605
  C         0.4762990657       10.3229862865       26.0897941074
  H         0.1566201604       13.9474027560       25.7215973633
  C        -0.1052832698       12.2599000860       27.0359875830
  H         3.9307283732       12.5289501221       23.0891743465
  H         3.3841779282       12.5303757920       24.7750548904
  C         4.7747490737       14.1252529109       24.3045531671
  C         2.4599445068        9.2127091900       20.0709164819
  C         0.0367410138       10.9567808803       27.1977935133
  H         0.4813146051        9.2566339035       26.0490395930
  C        -0.4293623508       12.6502310801       28.3167351691
  H         5.4452622495       13.5768472670       24.9126923504
  H         4.4408163696       14.8553882574       25.0216484081
  C         5.4017236625       14.9564736181       23.1413959905
  C         2.4911932623        7.8239486556       19.8353881311
  C         2.7883905580       10.0765240346       18.8746434102
  C        -0.3164223595       10.2241764655       28.4805599736
  C        -0.6441325205       11.5982776230       29.1392955275
  S        -0.7850425394       14.1895780801       29.0235833729
  H         6.0986797149       15.7284701134       23.5472164981
  H         4.6615971805       15.5089302735       22.5311717798
  C         6.1277363079       14.0351838987       22.1450886901
  N         2.1909481659        6.8526605254       20.7691799194
  C         2.7706297882        7.2117631385       18.5884411821
  C         3.0890042833        9.4484462378       17.6285909921
  H         2.5608787141       11.1072735821       18.9872429673
  C         0.8035271757        9.5163787072       29.3090685643
  C        -1.5800746973        9.4012532238       28.2458128858
  C        -1.0709364718       12.0211370540       30.4387640363
  C        -1.1536571112       13.4228712237       30.5339295184
  H         7.1803282299       14.1328137926       22.1523330201
  H         5.9879755764       12.9594868714       22.4266853640
  C         5.6822598464       14.2998272600       20.7035849715
  S         2.1449522249        5.3709882686       20.0217763230
  N         2.7479921942        5.8285182651       18.5708062644
  C         3.1350460337        7.9864348859       17.4868747284
  H         3.1470410025       10.0494889496       16.7461148398
  H         1.2188716318        8.6255725801       28.7483709443
  H         0.2635217758        9.1727781566       30.2442582597
  C         1.9322634167       10.3672874940       29.8299733539
  H        -1.4044165593        8.4746256655       27.7785966240
  H        -1.9793488713        9.1409143871       29.2244045003
  C        -2.7276101001       10.1736422671       27.5190366338
  H        -1.2905200995       11.2722012703       31.1460154223
  C        -1.4449073289       14.1400444912       31.8663449951
  H         5.8499926239       15.4017836331       20.5735199210
  H         4.6032834962       14.0752600554       20.6582156527
  C         6.4575151507       13.4642156198       19.6056009492
  C         3.3278948053        7.3266093122       16.2058195253
  H         2.4057914076       10.8620873211       28.9661243063
  H         1.4396837898       11.1557400867       30.3786054916
  C         2.9439692504        9.6655240632       30.7232370259
  H        -2.3986599096       10.5098566036       26.5704625725
  H        -3.0653384962       11.0268537762       28.0379374575
  C        -3.9759172653        9.4185065262       27.3191627761
  C        -1.6241963482       15.5667600320       31.9217663306
  C        -1.6633188926       13.3242616626       33.0867860909
  H         6.6669908186       12.4189366320       19.9304098556
  H         5.8793711521       13.2741345794       18.6885806928
  C         7.8527533064       13.9539101141       19.2776080058
  H         3.0129097523        6.2586588713       16.1103702402
  C         3.6713580392        7.6783799263       14.9461106467
  H         2.9797272035        8.6668867236       30.1698907817
  H         2.4163999630        9.5143379487       31.6716347361
  C         4.3198755364       10.4170554888       30.8253669059
  H        -3.6831960729        8.6827130827       26.5495298169
  H        -4.3424338038        8.9908559405       28.2920575064
  C        -5.0308198212       10.4998922667       26.9380951699
  N        -1.4853355003       16.3689860494       30.8389715015
  C        -1.8518174455       16.2288577856       33.0550748263
  C        -1.9671881854       13.9584808634       34.2655817741
  H        -1.5197360113       12.2629197186       33.0572958828
  H         8.0398339469       14.5755549167       18.4082063217
  H         8.3541718206       14.4414261375       20.1589782660
  H         8.3767403646       13.0053419108       19.0889953149
  S         4.0474053219        9.2767062418       14.3685604495
  C         3.6375522734        6.5939485476       13.8757374749
  H         4.4362359771       11.1418505917       30.0403006203
  H         4.3801409439       10.8137205419       31.8767525124
  C         5.4017391206        9.2885913648       30.7541326007
  H        -4.5239610081       11.4143046035       26.5701751898
  H        -5.5197048099       10.9137509376       27.8125451248
  C        -5.9058136622        9.8146030526       26.0034504121
  S        -1.3955872944       17.8758577260       31.4296450569
  N        -1.9119742742       17.6026322054       32.8878282354
  C        -2.1600681775       15.4632651176       34.2386005845
  H        -2.1327113987       13.3416907117       35.1366383640
  C         3.9496197786        8.4755327229       12.7519192141
  N         3.8513359633        7.1247168698       12.6901220853
  O         3.4576514232        5.3464937673       14.0761455313
  H         6.3250749312        9.8124597698       30.4427662541
  H         5.1471603641        8.6237956761       29.9539696299
  C         5.5948255068        8.4506095319       32.0597640582
  H        -5.3043944831        9.6094092998       25.1368900747
  H        -6.1583543757        8.8417461943       26.4724476828
  C        -7.0750853187       10.7034089798       25.7326550373
  C        -2.4106288140       16.1862621326       35.3760783767
  S         4.2246009525        9.3419559162       11.2154642466
  C         3.8300368203        6.4324824186       11.4087652588
  H         6.3087175248        8.9703777957       32.6348999395
  H         4.6841337406        8.5552571285       32.7021068936
  C         6.0525778505        6.9948718262       31.9374697153
  H        -6.7995768409       11.2638384529       24.8361689792
  H        -7.1485200958       11.3417522313       26.5240124885
  C        -8.3721603262       10.0917312213       25.3772037943
  H        -2.1756206199       17.2483441578       35.3337281711
  C        -2.9824377291       15.9123478900       36.5729113044
  H         4.5052934177        6.9030800017       10.7010778968
  H         4.4501858013        5.5478124042       11.5190043287
  C         2.4894658139        6.2819806450       10.6728506048
  H         6.2586718874        6.7260669742       32.9758324321
  H         7.0447663277        6.9271103921       31.4783648894
  C         5.0381841490        5.9739251026       31.2994836282
  H        -8.8754051673       10.6668069982       24.6001117025
  H        -8.2303317877        9.1021129324       24.9039210271
  C        -9.2674549280        9.9865525148       26.6118418235
  S        -3.5762858297       14.4227897481       37.1483820419
  C        -3.0350690122       17.0056589865       37.6336669481
  H         2.6612605831        5.5450715892        9.9284110862
  H         1.7027191207        5.8797177497       11.2873814652
  H         2.1632372956        7.2377091433       10.1919017518
  H         5.5000303074        5.0222775935       31.1184707619
  H         4.7307188781        6.3342838825       30.2792862423
  H         4.0221739840        5.9141723652       31.8328645838
  H        -9.6302983381       10.9294158190       26.9443548258
  H        -8.6707501122        9.4329312705       27.3405289643
  H       -10.1548678601        9.3535821398       26.3771670664
  C        -3.8779436001       15.1473465500       38.7134595723
  N        -3.6121769386       16.4647326455       38.7827867841
  O        -2.4951196746       18.1018959737       37.5408406951
  S        -4.4172530869       14.4079563752       40.1962970018
  C        -3.7362762348       17.3231846693       39.9219236235
  H        -3.5168770675       18.3257574778       39.5610148887
  H        -4.7058333097       17.2821242202       40.3629220831
  C        -2.5666396067       17.2006583854       40.9362890913
  H        -1.6130285546       17.4277927497       40.5015742659
  H        -2.8191868716       17.8151315465       41.7404229620
  H        -2.5350519873       16.1948598247       41.3636548411
