352
i=
  H         4.3078970953        1.0865448206       12.9267542432
  C         4.4134781735        2.1974925320       12.9550609438
  H         5.4786642891        2.2618185685       13.0151413719
  C         3.7865860700        2.8406977899       11.7180732672
  C         3.7506731917        2.6384543696       14.2776489562
  C         4.7005621677        3.0054268256       10.5042458590
  H         3.6852141534        3.8423898833       12.1291056351
  H         2.7728403654        2.4759519686       11.5654199183
  H         4.0148410737        1.9369822540       15.0948501323
  H         2.6265219058        2.7174341286       14.0678371687
  H         4.0564688258        3.6727967919       14.6416155040
  C         4.9464660929        1.6251377448        9.8171918854
  H         4.2494492840        3.8228373777        9.8496248643
  H         5.7158884376        3.3166575285       10.7730782839
  C         5.6031794563        1.6277410684        8.3821165734
  H         3.9380410556        1.1130107387        9.7903601391
  H         5.5725840210        1.0568267891       10.4876346583
  C         6.9245395347        2.4818214422        8.3065280686
  H         4.8932203717        2.0756991840        7.7011769082
  H         5.6185371413        0.6421997010        7.9594017169
  C         8.2058682194        1.7986473245        8.9663694848
  H         7.1317653138        2.7055981950        7.3136646136
  H         6.6725014429        3.3873897233        8.8586344279
  C         9.4407828237        2.7080450638        9.1362508591
  H         8.4947675577        0.8989343607        8.3865000997
  H         7.8484849046        1.4266667174        9.9240208521
  C         9.0358997915        4.0057665739        9.8382389428
  C         9.8219678567        3.4679829994        7.8194161828
  C        10.6369879155        2.0968338215        9.9137704871
  C         9.1685252964        5.1473546565        9.0144589741
  C         8.3971144509        4.4146618652       11.0347005135
  C         9.6505277754        4.8230780142        7.7103147333
  C        10.3143431137        2.9463488704        6.6455420895
  H        10.3580669486        1.7564498181       10.8208714718
  H        10.9935020706        1.2450282681        9.3676979025
  C        11.8801848325        2.9425237438       10.1984889605
  S         8.5486090246        6.6090472274        9.7337557710
  C         8.3292705914        5.7484197756       11.1955276287
  H         8.2362552595        3.6145943337       11.7541807667
  C         9.9278835392        5.4989864391        6.5541861320
  H        10.4011142917        1.8925305435        6.5862494751
  C        10.6340694850        3.6137264272        5.5270553318
  H        11.6050158683        4.0165031687       10.3649227711
  H        12.5585295550        2.9826353289        9.3104655533
  C        12.7847986149        2.3803392142       11.3051280133
  C         7.7254487269        6.3745934411       12.3710780938
  C        10.4920389129        4.9511467572        5.4305696105
  H         9.6905400457        6.5236163979        6.5298597961
  C        10.8541056065        3.1087009300        4.2898189082
  H        13.7892404638        2.7554258666       11.1998565735
  H        12.7280992410        1.2721533601       11.3285885260
  C        12.4857188789        2.8183197325       12.8077655760
  C         7.7690099887        7.7483721724       12.7373690414
  C         7.0973585366        5.5588478624       13.4608694123
  C        10.8933455228        5.5790138504        4.1901112946
  C        11.0786287964        4.1462951763        3.3890365507
  S        11.0788219192        1.5463606659        3.6656349307
  H        13.1259401521        3.7049854423       13.0737890387
  H        11.4898074015        3.1846275542       12.9450220491
  C        12.9621828685        1.6368280554       13.7494352288
  N         8.1669261960        8.7499000437       11.7887932520
  C         7.3833452685        8.2831334807       13.9494400893
  C         6.5868396204        6.0560585886       14.6658741157
  H         6.8068788559        4.5779189405       13.2027637721
  C        12.2301271805        6.3130299731        4.4608813749
  C         9.7269968417        6.4118332759        3.5281794563
  C        11.3329096418        3.6881856258        2.0847310293
  C        11.3816034644        2.3071526369        2.0986379631
  H        13.9995630113        1.2674130588       13.3725682947
  H        12.3083942342        0.7318402379       13.6710886742
  C        13.1166271076        2.0827270879       15.2000851032
  S         8.0734237933       10.2068953675       12.5286317200
  N         7.4896073095        9.6865244410       14.0073704024
  C         6.8060697683        7.4464791131       14.9667578037
  H         6.0857724945        5.3433346431       15.2719007278
  H        12.0461343961        6.9856925016        5.2972898321
  H        12.4779067447        6.9645940257        3.6208271894
  C        13.4159252441        5.4421838893        4.7769497804
  H         9.4770089238        7.2701391938        4.1948232883
  H        10.1261783216        6.7072586842        2.5745347634
  C         8.4285258718        5.6106829258        3.1999051164
  H        11.4971714108        4.3677944629        1.2800231299
  C        11.7701412102        1.4473744292        0.9235221632
  H        14.2819764549        2.3223677362       15.3044951183
  H        12.5880387046        2.9879832783       15.4414498636
  C        12.7084295409        1.0957236518       16.2353652327
  C         6.5997038532        8.0643548873       16.2186929228
  H        13.3296560759        5.0389869457        5.7477895535
  H        13.5511369215        4.6198536447        4.1459045669
  C        14.6274500916        6.4053905019        4.7236254847
  H         8.0539551037        5.1736654216        4.1508433393
  H         8.6516545853        4.7040243881        2.6104646835
  C         7.4312945274        6.4417643252        2.4883289336
  C        11.8343421172        0.0388771940        0.7995607612
  C        11.9828646422        2.1566186650       -0.3485932090
  H        13.4171246556        0.2439376500       16.3572907585
  H        11.7812372344        0.6275821696       15.9864293312
  C        12.4032677640        1.7237505877       17.5977919066
  H         6.6740266627        9.1213352563       16.2315525655
  C         6.2743351844        7.5579167152       17.4692077797
  H        14.4616799058        7.2086019206        5.4337148418
  H        14.8345254366        6.7909426476        3.7357156568
  C        15.9779834355        5.8200074807        4.9976325812
  H         7.2616795635        7.3871321711        3.0023216429
  H         7.7183113233        6.7060207793        1.4402917105
  C         6.2011094340        5.5474732417        2.3879218872
  N        11.5307569718       -0.8412372675        1.8657082035
  C        12.1297605292       -0.6567890073       -0.3666422853
  C        12.3236256399        1.4618409188       -1.5526151821
  H        12.1342922222        3.2510174224       -0.3596880373
  H        13.0221197248        2.5659257682       17.8879371419
  H        12.3691437735        1.0814858657       18.3843153671
  H        11.4049290014        2.2158003003       17.5773432187
  S         6.1884575914        5.8995767611       17.9024692954
  C         5.9998191097        8.5938280220       18.5117259006
  H        16.1580028715        4.9391323520        4.3816352343
  H        16.6238582170        6.6497964156        4.7188020086
  C        16.2656791571        5.4924554251        6.4821333890
  H         6.0223865643        5.0717897718        3.3675807727
  H         6.3316574478        4.6931168457        1.7363836554
  C         4.8888880641        6.2328929007        1.9214462309
  S        11.7875545457       -2.3903019645        1.4123536706
  N        12.3343918343       -2.0408567426       -0.1021443654
  C        12.2914314612       -0.0315882161       -1.6062302587
  H        12.4152380844        2.0808565999       -2.4152182545
  C         5.9866586014        6.5333083112       19.5386121158
  N         5.8896388405        7.8971035192       19.6421714364
  O         6.1356250833        9.8257361926       18.3541813295
  H        16.3442249052        6.4192247066        7.0524210466
  H        15.4865409236        4.8557982200        6.7882550062
  C        17.6618855678        4.8624703369        6.5655748242
  H         4.9104730446        6.5219643780        0.8997591491
  H         4.1282387788        5.4610428096        1.9410836541
  C         4.4303545964        7.4199709598        2.7523010428
  C        12.5310287516       -0.7910836201       -2.8031804271
  S         5.7429280909        5.5496892883       20.9840006161
  C         5.8960378932        8.6389706232       20.9255552422
  H        17.8757777163        4.7477971803        7.6650010049
  H        17.6511521851        3.8402936789        6.1830400257
  C        18.7041959885        5.6328584734        5.8093012210
  H         5.1295177620        7.4889345253        3.5679045549
  H         3.4298874745        7.3303500361        3.1908799051
  C         4.4215249618        8.7033718214        1.8899511129
  H        12.3199567083       -1.8627464276       -2.6953544457
  C        13.1688359120       -0.4821052364       -3.9603422228
  H         5.3837705216        8.0967187268       21.6888014816
  H         5.3362027960        9.6359877928       20.8070675627
  C         7.3626399808        8.7336479990       21.3555575315
  H        18.6074016318        6.7305667215        5.7720884487
  H        18.7935413375        5.1624102190        4.8305669260
  C        20.1128101342        5.3341460700        6.4430350627
  H         4.6870327799        9.5355137053        2.5775586191
  H         5.1352205896        8.6301484298        1.0781509336
  C         3.1027279546        9.0710862665        1.2630766286
  S        13.6337203733        1.0648461164       -4.5081797652
  C        13.3111731610       -1.5038998613       -4.9847423623
  H         8.0701367766        8.3914640010       20.5892807196
  H         7.5123802426        8.1683381239       22.2756442856
  H         7.6406047930        9.7651288877       21.4778405617
  H        20.4187816719        4.2627062961        6.5468875594
  H        20.8486441357        5.8410604367        5.8157777648
  H        20.1476295433        5.7088808610        7.4767717317
  H         3.1871443827        9.9622231930        0.6824309263
  H         2.9956649983        8.2462092673        0.5848332688
  H         2.2852878535        9.1036581717        1.9282917929
  C        13.9981631790        0.3602943967       -6.1006401384
  N        13.8044685871       -0.9394764670       -6.0993906818
  O        12.9524877123       -2.6567371569       -4.9115115599
  S        14.5728652143        1.1514167421       -7.6467035228
  C        13.9609329950       -1.7741563311       -7.1861846272
  H        14.2560868042       -2.8105351267       -6.9378644362
  H        14.8884624732       -1.4070215608       -7.6802562624
  C        12.7829636268       -1.6675661559       -8.0886219947
  H        11.9433766438       -2.0615155334       -7.5949513968
  H        12.9542566769       -2.3877253211       -8.9576010197
  H        12.5722478561       -0.6138977873       -8.3503537405
  H        -2.5527138206       15.0081774842       16.6327301608
  C        -3.1623514500       14.1604575312       17.0387993841
  H        -3.9193781743       14.6222990919       17.6698076764
  C        -2.0137417893       13.3061611938       17.6315281332
  C        -3.7634722632       13.6265799710       15.7002954493
  C        -1.7706171529       13.4807752176       19.1283247344
  H        -2.2065323984       12.2307903513       17.4004126412
  H        -1.1252888640       13.6214470757       17.0889486336
  H        -4.1382320187       12.5918069204       15.7209225681
  H        -4.4703158361       14.3405901988       15.2430148083
  H        -2.9812266710       13.4971042744       14.9440961898
  C        -3.0164006574       13.1116389903       19.9944055558
  H        -1.5338851097       14.5200946822       19.1327102495
  H        -0.8720833456       12.9747747003       19.5120313407
  C        -2.8215755996       13.5997604302       21.4515582843
  H        -3.9072509448       13.3988009382       19.5062407756
  H        -3.1030904913       11.9986976800       20.0248060863
  C        -1.7554672577       12.9058847838       22.3518305948
  H        -3.8579492002       13.5754131765       21.8598084836
  H        -2.5953523317       14.6705909195       21.3659048887
  C        -0.5643727115       13.8607197180       22.6479717796
  H        -2.1906910280       12.5500641859       23.3169039104
  H        -1.3624453323       12.0441993705       21.8766633454
  C         0.6316826776       13.2517598576       23.3038679658
  H        -0.2456490632       14.4819518459       21.7908669418
  H        -0.9146660721       14.5539891311       23.4136869134
  C         1.0539755112       11.8924881017       22.6089075770
  C         0.2138584377       12.4534839939       24.5321726864
  C         1.9589745390       14.0799391627       23.5456942831
  C         0.7593131853       10.7412914663       23.3093494204
  C         1.4881684063       11.6113390873       21.3315390921
  C         0.2565660082       11.0834770649       24.5156699871
  C        -0.2213810320       13.0779340659       25.6563433502
  H         2.2976417578       14.4145403541       22.5628376133
  H         1.7708523589       14.9855205774       24.0909932769
  C         3.1411377960       13.2562978195       24.1212704135
  S         1.1872046697        9.3128144913       22.5165900856
  C         1.6117231995       10.2392532467       21.1104421082
  H         1.8250704439       12.3639753305       20.6491882052
  C         0.0567136138       10.4060563183       25.6670000398
  H        -0.3830556174       14.1507706276       25.6630586122
  C        -0.5328695141       12.3791985443       26.8483582963
  H         3.4436620492       12.4039361287       23.5036317934
  H         2.8205554860       12.7398863589       24.9727114354
  C         4.4944459796       13.9194301975       24.4050351351
  C         2.1733834983        9.6414949081       19.8344015529
  C        -0.4310255399       11.0167693063       26.8429419041
  H         0.1202793607        9.2938026645       25.5821247408
  C        -1.0010125112       12.6285431136       28.0971865689
  H         5.0830916358       13.0894514269       24.8088599301
  H         4.4584444986       14.7110573709       25.2029398375
  C         5.3108107804       14.5835180683       23.2466262598
  C         2.4221421001        8.2436499660       19.7384027759
  C         2.4075214321       10.4538054297       18.5955705369
  C        -0.7791804444       10.2199016229       28.0427856188
  C        -1.1170902918       11.4728486295       28.8298091849
  S        -1.3391433646       14.0765676049       28.9210387327
  H         6.2052365390       15.1817396489       23.5323827354
  H         4.5798025378       15.3106960864       22.9125053412
  C         5.6210509898       13.5331233723       22.1659381777
  N         2.2077327563        7.2303235707       20.7092013027
  C         2.7660849898        7.6774043221       18.4987043085
  C         2.8512021567        9.8725766240       17.4436000430
  H         2.4370584863       11.5757992262       18.5921393131
  C         0.3850425739        9.4290142620       28.5750917679
  C        -1.9456931566        9.2754701370       27.8422247486
  C        -1.5176115068       11.8133825625       30.1452779420
  C        -1.5187982553       13.1616700847       30.3216090402
  H         6.6932624596       13.5817134199       21.9056884145
  H         5.4906892751       12.5464896251       22.5474133295
  C         4.9123060740       13.8378936791       20.8642846940
  S         2.5627457290        5.7867872602       20.1340113025
  N         2.9137338535        6.2762240290       18.6101898047
  C         2.9383016213        8.3517689627       17.3100049435
  H         3.0371774209       10.6324193592       16.7644026485
  H         0.8045796388        8.6806339402       27.8629136246
  H         0.0126761193        8.8793697830       29.4803803281
  C         1.6007199708       10.2329777709       29.1040742554
  H        -1.6825884527        8.4238680482       27.2185895774
  H        -2.3377573718        8.7579551161       28.7558576838
  C        -3.1513724771       10.0239030774       27.2300834283
  H        -1.6214818752       11.0317745270       30.8705526640
  C        -1.8609894849       13.8233658475       31.5594442228
  H         5.1310124772       14.9189636883       20.5112491348
  H         3.8455732173       13.7548108664       21.0520805435
  C         5.1371756595       12.8331731701       19.6947211181
  C         3.1314647129        7.5958380728       16.1398770487
  H         2.2247175310       10.7518070684       28.3943847829
  H         1.1723220624       10.9607385269       29.8397550135
  C         2.4601686088        9.2290173799       29.8574355345
  H        -2.9703490927       10.2896095415       26.2088671917
  H        -3.3279795969       10.9243746628       27.7683772620
  C        -4.5375551136        9.2683645442       27.2661788824
  C        -2.0613950558       15.2330169407       31.7487630964
  C        -2.0433864800       12.9630575087       32.7570096233
  H         4.9534211105       11.8722966497       20.1448193841
  H         4.3050182420       12.8971829843       18.9803678766
  C         6.4817247374       12.9612897901       19.0307319338
  H         2.8108318307        6.5402506261       16.1993788040
  C         3.4381557955        8.0374740961       14.8627096153
  H         2.5598269081        8.3905883550       29.1322675201
  H         1.9433940883        8.8742939481       30.7189578850
  C         3.7894563115        9.8411719763       30.2920413020
  H        -4.7118347523        8.3380362918       26.6446964357
  H        -4.8575348900        8.8606429251       28.2863138670
  C        -5.5394160006       10.2945773403       26.7901177649
  N        -1.8115590712       16.1896128743       30.7916951070
  C        -2.2239236136       15.7771722247       32.9910077554
  C        -2.2354472327       13.5205464163       33.9918224676
  H        -2.0773330692       11.9413334196       32.7041546592
  H         6.7882167775       13.9846917642       19.1665800133
  H         7.3616178323       12.3419682193       19.3211743349
  H         6.3477854625       12.7936295258       17.9283664591
  S         3.8971204269        9.6480362404       14.4859162787
  C         3.4822409148        7.1313222775       13.7109295116
  H         4.3539785169       10.1201328095       29.4188195702
  H         3.6149467483       10.7708652948       31.0072692974
  C         4.6940798638        8.8326909496       30.9565810338
  H        -5.0513607887       11.0519275732       26.2332953069
  H        -5.8386003351       10.8981889017       27.6358415773
  C        -6.8740079602        9.7761775001       26.2629491571
  S        -2.0725532399       17.7085194861       31.4651719528
  N        -2.3181887718       17.1805099328       32.9696819473
  C        -2.2769343654       15.0176236929       34.1920573934
  H        -2.3169300985       12.8279433977       34.7886083882
  C         4.0445485844        9.1555709213       12.8494708709
  N         4.0697195744        7.7861053653       12.6564702938
  O         3.1811456331        5.8912659468       13.6982549976
  H         4.4897529699        8.7769395147       32.0156625378
  H         5.7071308071        9.2622403984       30.9496172951
  C         4.7174862083        7.4347812736       30.2696268955
  H        -6.8391194316        8.9133577287       25.5980895896
  H        -7.2957404255        9.4547355127       27.2655029765
  C        -7.8888231527       10.8086790245       25.6909431757
  C        -2.4149954857       15.7791261123       35.3969888071
  S         4.5627456668       10.1485509443       11.5199978607
  C         4.3288815167        7.2014865721       11.3030019899
  H         3.8037921668        6.9988730335       30.4651744913
  H         4.8973677340        7.4668758655       29.1859605939
  C         5.6596674967        6.4388107892       30.9569759570
  H        -7.6040425442       11.2015985777       24.7775117168
  H        -7.7905600726       11.6144348320       26.3630074325
  C        -9.2571032133       10.1807871913       25.4450017578
  H        -2.5046398424       16.8446238015       35.2809098214
  C        -2.9333618579       15.3427761833       36.6237844318
  H         4.9661306599        7.7944207310       10.6601499238
  H         4.7823946272        6.2136596832       11.3457200061
  C         2.9675672131        7.0966335739       10.6020454036
  H         5.2526248915        5.4822880425       30.9616878318
  H         5.7683570662        6.6591585269       32.0100429818
  C         7.0399943787        6.4226127565       30.3689135739
  H        -9.7872481448       10.5060335717       24.5478250819
  H        -9.0790951116        9.1108660938       25.3501962649
  C       -10.1018446615       10.4000433273       26.6670052104
  S        -3.3409452276       13.7531017427       37.0177856491
  C        -3.0467460821       16.3367328074       37.7968802808
  H         2.5527655572        8.0866761359       10.6930073474
  H         3.1481308451        6.8995900222        9.5531984558
  H         2.2640887204        6.4048831439       11.0683972340
  H         7.2883258981        7.3219485179       29.8581041117
  H         7.0972408514        5.6564438965       29.6068631798
  H         7.7536229681        6.2838088510       31.2808496222
  H       -10.7026720015       11.3121998865       26.7667657744
  H        -9.4064037755       10.2697803945       27.5168659538
  H       -10.7187914992        9.4823645573       26.8019734884
  C        -3.8676245424       14.3940563137       38.5829824082
  N        -3.7296426177       15.7504140909       38.7676631389
  O        -2.7890447237       17.4992582397       37.7417163961
  S        -4.7887501468       13.4322099524       39.7076486875
  C        -4.1800104196       16.4297365253       39.9857974280
  H        -4.2597390435       17.5548031234       39.8691071860
  H        -5.0949738242       16.0403961630       40.3082463499
  C        -3.0067182307       16.5554041165       41.0245884472
  H        -2.2279921312       17.2432918924       40.7102512344
  H        -3.2561355835       16.9261755666       41.9989995697
  H        -2.4639211320       15.6315989823       41.0809957247
