352
i=
  H         5.0111204205        1.8498654500       12.1314432739
  C         4.1816083456        2.5436729957       12.3594100726
  H         4.4866904604        3.6066191831       12.3847136349
  C         3.1914648374        2.4627255868       11.1982699444
  C         3.5746317497        2.0543973665       13.6970883150
  C         3.8402172952        2.6375347599        9.8451686378
  H         2.5055140587        3.3478342449       11.3051214456
  H         2.7097727219        1.5062988622       11.1787098258
  H         2.7312214490        1.3455739779       13.6413070032
  H         3.0783245142        2.7650477289       14.1849053326
  H         4.2823307431        1.7574062858       14.3520234981
  C         4.6887116854        1.5094871319        9.3583316860
  H         3.1584346342        2.8608761475        8.9602887435
  H         4.5352403177        3.5033047295        9.8292667140
  C         5.3038575595        1.6606508330        8.0139274522
  H         3.9817782383        0.6907732707        9.4582559541
  H         5.3671810325        1.1943083567       10.1554450130
  C         6.5123526696        2.5475785928        8.0025119733
  H         4.6158107498        2.1159409989        7.3116846595
  H         5.5094087013        0.6835525677        7.5678926652
  C         7.7320851817        1.9767915113        8.7901288473
  H         6.7603107104        2.6622770060        7.0246569240
  H         6.2417032486        3.5647607366        8.3449205913
  C         8.8920076531        3.0007458808        8.8547177214
  H         8.1372142063        1.0745636030        8.2366857459
  H         7.4382785764        1.7762300097        9.8904678442
  C         8.4542461360        4.3296949251        9.5013320995
  C         9.3735087139        3.6775797558        7.6124853071
  C        10.1101916255        2.4000865802        9.7081441419
  C         8.7786544370        5.4403920344        8.7132185990
  C         7.8450863328        4.6886595228       10.7165937160
  C         9.2065163009        5.0126697609        7.4324563296
  C         9.7298058122        2.9916550337        6.4753332779
  H         9.7305736799        2.1909300889       10.7410775333
  H        10.2832458744        1.5068847823        9.2275425213
  C        11.4554852792        3.1656208311        9.9645689235
  S         8.6526061403        6.9323361088        9.5878475477
  C         7.9805574725        6.0388074081       10.9581771540
  H         7.6784106478        3.8720981189       11.3822663904
  C         9.7003032344        5.6469977337        6.2770457370
  H         9.6719382704        1.9391298622        6.3690966205
  C        10.0671482610        3.6440286237        5.2920187456
  H        11.0906197125        4.1112391510       10.2138991228
  H        11.8893657634        3.2883084033        8.9782466009
  C        12.3997950744        2.5888657149       11.0573766032
  C         7.6887270777        6.6885969665       12.2536666582
  C        10.1903074810        4.9637585731        5.1523243120
  H         9.7332625940        6.7281209418        6.2985357354
  C        10.6142596244        3.2396210734        4.1194779377
  H        13.3255641618        3.0745727777       11.0490857448
  H        12.6445403521        1.6088723941       10.7995335263
  C        11.7149207065        2.4526605472       12.4174755536
  C         7.7436206722        8.0399399836       12.5755325386
  C         7.3349402532        5.8377323164       13.3844125295
  C        10.7164187546        5.6297668417        3.8949611972
  C        11.0466344544        4.2875542125        3.3304813638
  S        11.0120860023        1.6934154567        3.4337832544
  H        11.1443961364        3.4302178258       12.5713185684
  H        11.1345849751        1.5886788713       12.3591868233
  C        12.7433889954        2.1640772175       13.5096615201
  N         8.1483491713        9.0426894264       11.7152101121
  C         7.5199315615        8.6518203840       13.8443943326
  C         7.0411528774        6.3577882503       14.6209209447
  H         7.1474332508        4.7863064669       13.3344466972
  C        12.0447841583        6.3353921898        4.0520605623
  C         9.6223084019        6.4163417143        3.1290830498
  C        11.5745186763        3.7763491290        2.0731596920
  C        11.5916348563        2.4400460803        2.0008147317
  H        13.5574752980        2.8667804488       13.6125036515
  H        13.2322927051        1.1976825991       13.1619909052
  C        12.2106999170        1.9774705676       14.9417581283
  S         8.0223053007       10.4762040877       12.3788874504
  N         7.6523511449       10.0491960416       13.8442210218
  C         7.1652196441        7.8034450301       14.8969120137
  H         6.8344281778        5.7049002169       15.4044854797
  H        11.9432204527        7.0796677696        4.8497443314
  H        12.2361762995        6.6600238290        3.0084024777
  C        13.1167520980        5.4279743286        4.6034106773
  H         9.4702436708        7.2548586413        3.9176746301
  H        10.0721961853        6.7942753919        2.3107042529
  C         8.4173134281        5.6175230150        2.6673655030
  H        11.7830046777        4.4845069319        1.4084709943
  C        11.8280093651        1.6863442890        0.7539715276
  H        11.5813404756        2.8325663986       15.1075531864
  H        11.6327098212        1.1049958500       15.0116774500
  C        13.3341051830        1.8857569746       15.9251363554
  C         7.0619281470        8.4548295259       16.1575670797
  H        12.8098600492        4.7713148858        5.3283024583
  H        13.3699279697        4.8038811698        3.7994088089
  C        14.4304578871        6.2077233092        4.9584184272
  H         8.1703954288        4.9905944987        3.5603521606
  H         8.7350198062        4.9559732366        1.9555505254
  C         7.2675245849        6.5415344807        2.4155352643
  C        11.9236772505        0.2824033838        0.6047805327
  C        12.0381484202        2.4760256640       -0.3980164474
  H        14.0297008474        2.6847713383       15.6769969142
  H        13.8105649926        0.8628593977       15.9891941419
  C        12.8934091723        2.3144345105       17.3161672754
  H         7.1599492364        9.5172969597       16.2758492245
  C         6.7663816661        7.9795464623       17.4409827404
  H        14.3821029393        6.5615023734        5.9869362863
  H        14.4328226321        7.0577376961        4.2594672890
  C        15.6594791100        5.3202126700        4.7477522881
  H         6.8284934633        7.0229062468        3.3305283552
  H         7.6010441491        7.5672715669        2.0997504233
  C         6.0504026640        5.9564133192        1.6058599259
  N        11.4759860735       -0.6452676710        1.6068766393
  C        12.2120922730       -0.3246713799       -0.5384707018
  C        12.3345109371        1.8228281132       -1.6335223776
  H        11.8791217155        3.5242361357       -0.5430474449
  H        11.9545551023        1.9327155866       17.4429021552
  H        12.9061213297        3.3150871266       17.5900818803
  H        13.6255702327        1.8065348694       18.0282321418
  S         6.5597475336        6.3490171138       17.8795818957
  C         6.6355759476        9.0269692404       18.5154376101
  H        15.6340591890        4.3834628698        5.2926485119
  H        15.8401942423        5.1949278383        3.6746859083
  C        16.8566689936        5.9567643847        5.3141162354
  H         5.6737925673        5.0478490534        2.1763110700
  H         6.3590279918        5.5752657111        0.6799967169
  C         5.0687120408        7.0089732190        1.2362082216
  S        11.5766816079       -2.1231796674        0.9716721900
  N        12.0856002705       -1.6944344771       -0.5111679589
  C        12.4561015251        0.3926224470       -1.7226398963
  H        12.3016578143        2.3932392272       -2.5235631257
  C         6.3729268539        7.0459049602       19.5503108019
  N         6.3628718454        8.3692858100       19.7142591396
  O         6.8309969935       10.2423265832       18.4722316773
  H        17.7482063523        5.8717553279        4.6907032786
  H        16.5826339521        6.9968848032        5.4043038978
  C        17.1953147943        5.3622172139        6.7185367790
  H         5.4418500336        7.8316969525        0.8095713661
  H         4.4950069358        6.4954266091        0.4955229064
  C         4.1535464230        7.4263835357        2.4412653267
  C        12.6594178915       -0.3375071207       -2.9678442357
  S         5.8109723889        6.0119998226       20.9015905175
  C         6.5262661731        9.0028323314       21.0367178472
  H        16.4361506563        5.7887776262        7.4098709380
  H        17.0215552630        4.2940584079        6.7913939514
  C        18.5312033350        5.8561876392        7.2344738516
  H         4.7823812752        7.9210211396        3.2006082063
  H         3.4793613636        6.7069847276        2.8891081382
  C         3.1643738208        8.5333761064        2.0805367511
  H        12.7642301523       -1.4008611743       -2.8900534870
  C        13.1700926664       -0.0901481784       -4.2150298144
  H         6.0869862592        8.5618429344       21.8532655108
  H         6.2303313786       10.0222152500       21.0692252719
  C         7.9395169236        9.1121407097       21.5845734593
  H        18.6579689506        5.3801713001        8.1595611518
  H        18.5150698243        6.8596850555        7.3670574869
  C        19.6546831806        5.5640145552        6.3235223999
  H         3.1271184580        8.6143353471        0.9681848940
  H         2.1397126743        8.5050016545        2.5085511130
  C         3.8206199980        9.8955993406        2.4823275892
  S        13.5954279141        1.4944514350       -4.6176272097
  C        13.3361949699       -1.1508964907       -5.2181379019
  H         8.2254583640        8.6435512258       22.4800287367
  H         8.1062506429       10.2114041342       21.8945947123
  H         8.7107752442        9.0007697411       20.8327451958
  H        19.9230962787        6.4237796925        5.8492809169
  H        20.5527564540        5.2078275420        6.7425320184
  H        19.3867685088        4.7965524199        5.6248170035
  H         3.9926425531        9.9180280751        3.5518350614
  H         4.7407659328       10.0119143591        1.9850592715
  H         3.1952513526       10.7353032405        2.0644194712
  C        13.8972341369        0.7704740669       -6.2232805620
  N        13.9437268392       -0.5714284335       -6.2706008116
  O        13.2421482982       -2.3817775743       -4.9756219915
  S        14.7678122325        1.5559026185       -7.6204810602
  C        14.1725076723       -1.2788072597       -7.4892736521
  H        14.3045127177       -2.3305373323       -7.1548286840
  H        15.0651658903       -0.9895761541       -7.9963872598
  C        13.0473615645       -1.3388068346       -8.5204545878
  H        12.9270202330       -0.2133002070       -8.7721074851
  H        12.1850121013       -1.5663598886       -7.9150922580
  H        13.2841221247       -2.0361876523       -9.3254719865
  H        -3.7548069373       15.0336483681       16.7209045441
  C        -3.3584922370       14.0366543188       16.4770236252
  H        -4.1882906287       13.3254205279       16.6418094756
  C        -2.3714685910       13.8177789338       17.5342094821
  C        -2.7981833484       13.8711153069       15.0529378019
  C        -2.8916826368       13.9910863700       18.9662846861
  H        -1.9675600343       12.7890923754       17.5001422764
  H        -1.5424908740       14.4138183458       17.5105866044
  H        -3.5729908078       13.2825456027       14.5448447838
  H        -2.7611063586       14.8591456189       14.7005840105
  H        -1.7933447159       13.3949786101       15.0708076302
  C        -1.8659617373       13.7950988341       19.9756248720
  H        -3.7310080449       13.2855913662       19.1692523217
  H        -3.2033486443       14.9665270103       19.1476819673
  C        -2.4195986621       13.6748719376       21.4040445974
  H        -1.3168203261       12.8832005000       19.6394551215
  H        -1.1634911583       14.5954427890       19.8096517320
  C        -1.3964906689       12.9155990933       22.3145700527
  H        -3.2772443621       12.9297806233       21.5214060081
  H        -2.5139664209       14.7559090125       21.7708772977
  C        -0.0291238526       13.6684474269       22.5506018376
  H        -1.7754897655       12.7418462445       23.3839347927
  H        -1.1993696459       11.9377223098       21.8037677636
  C         1.1066430638       12.8734506813       23.2858194053
  H         0.4072570778       14.0672965473       21.6664313552
  H        -0.2690102908       14.5907694543       23.1343671269
  C         1.4642392701       11.6078666969       22.5627568048
  C         0.6847906968       12.1439083186       24.5503428428
  C         2.3091836917       13.7729451918       23.5744495703
  C         1.2766371071       10.5159252800       23.4015026336
  C         1.9703689144       11.1980085688       21.3322838904
  C         0.6714899417       10.8553600050       24.6473034988
  C         0.3585836853       12.8493123512       25.7035779925
  H         2.4837280491       14.2874327813       22.6027851833
  H         2.0931834952       14.4180952868       24.4909735931
  C         3.6555805408       13.1451257975       24.0128524179
  S         1.8128983830        9.0247101171       22.7518452934
  C         2.2272217538        9.8918586282       21.2744830721
  H         2.1883252091       11.8661880857       20.5639778386
  C         0.3219433253       10.2602843653       25.8346988866
  H         0.5778866957       13.8552001725       25.7956148647
  C        -0.0490331814       12.3179802048       26.9091163685
  H         3.7088892159       12.2404503259       23.4621995384
  H         3.4918128327       12.9203242198       25.0247572298
  C         4.9222637840       14.0042926545       24.0408733606
  C         2.8359641337        9.1984565482       20.1498174477
  C        -0.0605259889       10.9462488120       27.0469419969
  H         0.2723260852        9.1564541035       25.9388422624
  C        -0.4624419656       12.7816574252       28.1528275832
  H         5.8184595432       13.5690831588       24.5294929133
  H         4.6429548169       14.8470425454       24.6381934716
  C         5.4600176386       14.4055091113       22.6883921892
  C         2.7189872421        7.8263081235       19.8698644202
  C         3.2329445468       10.0418413201       18.9777712999
  C        -0.6441552807       10.3990743163       28.3582886877
  C        -0.8570448111       11.7598857852       28.9628138703
  S        -0.7709869662       14.3086349889       28.8922940439
  H         6.1799233353       15.2347906922       22.7177007581
  H         4.5899512017       14.7204649421       21.9793431420
  C         6.0852297934       13.1451531127       21.9795804536
  N         2.4808967819        6.7784568040       20.8222875706
  C         2.9532347325        7.2488989393       18.6217530724
  C         3.4796642315        9.4716992770       17.7572515740
  H         3.4298694955       11.0604662742       19.1922391212
  C         0.4589051678        9.5050554029       29.0893239521
  C        -1.9749020040        9.6589650031       28.2019556504
  C        -1.2075410271       12.1578215320       30.2588974304
  C        -1.2333351867       13.5373213424       30.3659240548
  H         7.0668471935       12.9184342453       22.3629028888
  H         5.5915464177       12.1924908094       22.3143988332
  C         6.1452290031       13.1081646963       20.4550456457
  S         2.2695217513        5.3846735533       19.9786475392
  N         2.7607116171        5.8898536786       18.4964378057
  C         3.2989147605        8.0805080294       17.4929308435
  H         3.7723705086       10.0700078864       16.9462875884
  H         0.6456500363        8.5888278918       28.4419152894
  H         0.0692534269        9.1388917569       30.0170566229
  C         1.7666756740       10.2240528965       29.4495987510
  H        -1.7671445376        8.9780118980       27.4100550675
  H        -2.3131575692        9.1124151846       29.1346893176
  C        -3.1463713379       10.5212639611       27.8838541286
  H        -1.4727590025       11.4563895702       31.0024721517
  C        -1.7440199257       14.2286301128       31.5944834742
  H         5.6172832674       13.9774925539       20.1326740688
  H         5.4874244951       12.4101129969       19.9910466396
  C         7.5461365517       13.0997310672       19.7476257860
  C         3.5025421944        7.4169712253       16.1788755483
  H         2.2669190769       10.7628619237       28.5706764555
  H         1.6734136103       10.8911953588       30.3303162924
  C         2.7475186531        9.2541549780       29.9609606820
  H        -2.8304085961       11.2273447662       27.0467048941
  H        -3.4552816453       11.1293574300       28.6976178447
  C        -4.4888419104        9.7551710809       27.4706162021
  C        -1.7166302061       15.6427530768       31.7098233357
  C        -2.0459607677       13.4650850980       32.8367596209
  H         8.0168500235       13.8797259516       20.3721120328
  H         8.1629602495       12.1825660391       19.9364342578
  C         7.5527258922       13.4056280483       18.2529140139
  H         3.2380641063        6.3326719202       16.1436815423
  C         3.8738113069        7.9071312046       14.8950917942
  H         3.2126691049        8.5805659955       29.1198907241
  H         2.3088528658        8.5877277981       30.7605229913
  C         4.0116653581        9.9927340236       30.5509334522
  H        -4.1621920920        9.0771805140       26.7724381138
  H        -5.0017839570        9.1457548611       28.2661712864
  C        -5.4619779429       10.6984428749       26.8267007249
  N        -1.2443072041       16.5522129715       30.7651937957
  C        -2.0292452394       16.2882724525       32.9247918643
  C        -2.4857594958       14.1523763952       34.0036279071
  H        -2.1734559159       12.3501204717       32.8614741151
  H         6.5330950309       13.0049967324       17.9116967272
  H         7.5936202404       14.4353673155       17.9734248623
  H         8.3166973702       12.9333599325       17.7779730504
  S         4.0326754735        9.6027997508       14.2777687868
  C         3.7567052130        6.9062709346       13.7762584528
  H         4.2002171162       10.8219740839       29.8286351849
  H         3.5822266615       10.2611261525       31.5275759070
  C         5.2901163586        9.3472529056       30.5627246587
  H        -5.0601999198       11.0886465494       25.9482982826
  H        -5.6795729316       11.4643732979       27.5018281199
  C        -6.8992055511       10.2121126214       26.6292711853
  S        -1.3090124910       18.0263879944       31.2941433289
  N        -1.8034032769       17.6503065143       32.7853268425
  C        -2.5082113404       15.6397217707       34.1164080747
  H        -2.8241418993       13.4976889955       34.8857242332
  C         4.1864704740        8.8344789213       12.6928578659
  N         4.0503091412        7.4611204660       12.5546317994
  O         3.5678802519        5.7230436258       13.8888415117
  H         6.0236476619       10.1150172020       30.9395882990
  H         5.3503414134        9.0223684252       29.5392134447
  C         5.0745446545        8.2158050265       31.4070945698
  H        -6.9267538452        9.1695841550       26.5636779406
  H        -7.3966136132       10.5301272116       27.6343144729
  C        -7.5941407071       10.9512572759       25.5835680915
  C        -2.8738190543       16.4439258389       35.2729393414
  S         4.3258023793        9.7347807704       11.2927519206
  C         3.9054431430        6.7960417838       11.2510237748
  H         5.4821862513        8.4477645978       32.4215154156
  H         4.1129131161        7.7465044279       31.5541783949
  C         6.0036954708        7.0675119178       30.8610256237
  H        -6.9508806697       11.0738102957       24.7422265421
  H        -7.9515360525       11.9248760391       25.8760845933
  C        -8.8391698671       10.2062027981       25.0859454778
  H        -2.4366128549       17.3763187521       35.3105466857
  C        -3.2956381628       16.0347392967       36.5501400225
  H         4.4123397119        7.3414599486       10.3452154412
  H         4.4303819131        5.8609120664       11.4048274795
  C         2.4184701005        6.3663240887       10.9670399658
  H         7.0200517687        7.2865435476       30.8599319593
  H         5.6950639481        6.7044213447       29.8826323063
  C         5.8257591234        5.8929926592       31.7784997163
  H        -9.2172711595       10.6548481074       24.1825206378
  H        -8.7376591516        9.2271163762       24.8063895674
  C        -9.7899702330       10.0594960010       26.2720296186
  S        -3.8413308327       14.5303333782       37.0519912189
  C        -3.1909489003       17.1119661804       37.6062412635
  H         1.6870907737        6.9973198537       11.4326545587
  H         2.2722454848        6.4930123589        9.9251361500
  H         2.1778158756        5.3299108512       11.2915184014
  H         6.5029752051        5.0997791759       31.4429272322
  H         4.8797205393        5.3771156313       31.8371387372
  H         6.0783977203        6.2814999924       32.7788431596
  H       -10.7648321075        9.8587323194       25.8765397008
  H        -9.7478324238       11.0992189583       26.6007673664
  H        -9.4851148325        9.5513911121       27.2009077450
  C        -3.9290377836       15.2923820712       38.6193901107
  N        -3.6029331141       16.6079355551       38.7790785898
  O        -2.6786202821       18.1818722543       37.5402820107
  S        -4.5556814350       14.5008355469       40.0446777941
  C        -3.5337097967       17.2968323460       40.0355670256
  H        -3.8108017697       18.3269441044       39.9115783567
  H        -4.0930931958       16.9332043069       40.8690754194
  C        -2.0366848566       17.3580753071       40.3991841559
  H        -1.3794137939       16.8029772195       39.7780003289
  H        -1.8468882378       18.3888828162       40.0833145806
  H        -1.9437949195       17.1555252890       41.4705217958
