352
i=
  H         2.3088124841        1.7460363190       13.0808355672
  C         3.2809690102        2.1519225874       12.7348008932
  H         3.9751364916        1.2809507022       12.4931571592
  C         3.0706959048        2.9847325847       11.4978289529
  C         3.8271030828        2.8684904991       13.9204981072
  C         4.3325595592        3.1297719102       10.4967864641
  H         2.7371794923        3.9528157196       11.7959858355
  H         2.2631444287        2.4380266027       10.9510632224
  H         3.9598281292        2.2044807382       14.7167497146
  H         3.3015450592        3.7248009063       14.2006910186
  H         4.8326559848        3.2418436678       13.7762820183
  C         4.4829515541        1.7765453951        9.6899052080
  H         4.1249093401        3.8821187820        9.7196423867
  H         5.2218261834        3.4618757209       11.0705780911
  C         5.1719310696        1.9890500129        8.3494687790
  H         3.5334718898        1.3053692245        9.4875107373
  H         4.9901167849        1.0090231225       10.2377452575
  C         6.5396368243        2.6851318394        8.3875343058
  H         4.5420488025        2.5868667433        7.7120627080
  H         5.2359332381        1.0821640679        7.7621822670
  C         7.6813832615        1.8439733980        8.9901072262
  H         6.9440181577        2.7990283057        7.3464920864
  H         6.3632163779        3.7340526547        8.6800671277
  C         9.0261750093        2.5427403175        9.2891893147
  H         7.7979805834        1.1086831043        8.2199187247
  H         7.1992412552        1.3175299159        9.8577591988
  C         8.6747947075        3.8071746369       10.0273242043
  C         9.4625319500        3.2314438234        8.0735444185
  C        10.2034762562        1.6862767525        9.8942532987
  C         8.9235539025        4.9371185008        9.2491933855
  C         8.1926621330        4.2117278799       11.2583509231
  C         9.4832205417        4.6052293655        8.0718823092
  C         9.9542661769        2.6407852587        6.9036232422
  H         9.8864317524        1.2396711983       10.8176463511
  H        10.3977003193        0.7820156955        9.3087570786
  C        11.3960006248        2.6010885851       10.2317955260
  S         8.6120396265        6.4471552577       10.0456001560
  C         8.1135349810        5.5358185373       11.4424831155
  H         8.0104190643        3.4579434004       12.0124786087
  C         9.8492862967        5.2575357961        6.9445292995
  H         9.9369215649        1.5685633990        6.9004562066
  C        10.2887425586        3.3139556300        5.7552206416
  H        11.0600431678        3.5809460855       10.5533688695
  H        12.0641051429        2.7971249976        9.4231912248
  C        12.2933060048        1.9314919891       11.2857256912
  C         7.6833505924        6.1944499822       12.7395835127
  C        10.2845471161        4.6397222773        5.7731920162
  H         9.6353096905        6.2853217502        6.9187620562
  C        10.6969201970        3.0215617314        4.4350261178
  H        13.2704102874        2.3583498857       11.2727319235
  H        12.3584964599        0.8338004899       11.2041850081
  C        11.8548276754        2.3699757537       12.7593928405
  C         7.7420910684        7.6084959107       12.9519694380
  C         7.2208870605        5.4188530464       13.8706933333
  C        10.6973222399        5.4242419220        4.5699530878
  C        10.9314645304        4.1351287153        3.7006770850
  S        11.0358372939        1.5860282390        3.6651734750
  H        11.5704204954        3.4334901096       12.8607450217
  H        10.9426270398        1.7206577707       12.9373368029
  C        12.9121973888        2.0622331109       13.8349314601
  N         8.1193175713        8.5920061297       12.0090774307
  C         7.5901939822        8.1177180198       14.2016961854
  C         6.9579446227        5.9628811958       15.1253722393
  H         7.0624352458        4.3594992727       13.6277469742
  C        12.0491678720        6.2385071967        4.7046138778
  C         9.5943197475        6.3268130007        3.9552578071
  C        11.3865766662        3.7668153819        2.3990211489
  C        11.4455564581        2.4096454817        2.2307701979
  H        13.3334516394        2.9189335589       14.3308240780
  H        13.8048896762        1.6368068621       13.3675334800
  C        12.4083224424        1.0433208037       14.8316869397
  S         8.1550699928       10.0348494618       12.7349973619
  N         7.7611040185        9.5062744856       14.2574652164
  C         7.2412512938        7.3975748854       15.3788143503
  H         6.6742835389        5.2574855783       15.9068810818
  H        11.9952043332        7.0932882375        5.4446951395
  H        12.2627637922        6.7922877274        3.8178464413
  C        13.3427783259        5.4554043890        4.9417798133
  H         9.2795717904        7.1757534307        4.5654060571
  H        10.1792596024        6.7327664891        3.1385013171
  C         8.1911396864        5.6977109702        3.6468674695
  H        11.5951296787        4.5231430058        1.7032224337
  C        11.8250608076        1.6463874241        0.9553038751
  H        11.6038327268        0.4619416496       14.3875023663
  H        13.1164624467        0.3290404893       15.1934710263
  C        11.7081317230        1.7701429672       16.0052261710
  C         7.0654828057        8.1669287791       16.6168618835
  H        13.2200333727        4.7599617864        5.7429950069
  H        13.5967974160        4.8637351338        4.1047474998
  C        14.5696413949        6.2913488397        5.1326641738
  H         7.4925375539        5.6713836298        4.4720197763
  H         8.3481600985        4.6713026966        3.3673776175
  C         7.4921025339        6.3127770824        2.3837700126
  C        11.9341382214        0.2597566675        0.7613260139
  C        12.1902291556        2.5158326191       -0.1967760781
  H        10.8843908968        1.0921225697       16.3260343032
  H        11.2540160420        2.7266078373       15.7307348183
  C        12.7205771391        2.1232432515       17.0673986577
  H         7.0661945252        9.2595937632       16.5510168244
  C         6.7677987190        7.7286407178       17.8825277746
  H        14.5653987028        6.5738299501        6.1459272305
  H        14.5197777475        7.2650596047        4.6027971075
  C        15.9890136448        5.6775647404        4.9113701840
  H         7.6115924855        7.3694632366        2.4530592337
  H         8.0698587253        6.0115733324        1.5196556617
  C         5.9695051096        6.0899569420        2.1707158469
  N        11.5843886894       -0.7372285603        1.6898484384
  C        12.3916862251       -0.3350811028       -0.4722915309
  C        12.6663152531        1.8862017668       -1.3882419424
  H        11.9839890572        3.5710773884       -0.2987634763
  H        13.3259232757        2.9200258376       16.7246860051
  H        13.3051683926        1.1913322162       17.3926107511
  H        12.0461391975        2.4916966532       17.9358299528
  S         6.3394311309        6.0792375596       18.2793532868
  C         6.6966439093        8.7668132241       18.9494127490
  H        15.9779194465        4.5778523441        5.1501937653
  H        16.1292398048        5.6549533785        3.8654774713
  C        17.0872142245        6.5647875113        5.5854107463
  H         5.3224371079        6.2558065116        3.0337479773
  H         5.8659973676        5.0482358431        1.9693550442
  C         5.4948898451        6.9132417500        0.9767769994
  S        11.8353064123       -2.1739992076        1.0048382597
  N        12.3635531868       -1.6824810312       -0.4263440492
  C        12.7665890428        0.3984116729       -1.6189022607
  H        12.7500910098        2.5461577251       -2.2557414208
  C         6.0730042055        6.7840836580       19.8597791691
  N         6.1532872130        8.1655521864       20.0085675200
  O         7.0477916392        9.9543721512       18.8353701026
  H        17.8041377162        6.9254055315        4.7845551164
  H        16.6606775775        7.5122515536        5.9330047918
  C        17.7665572330        6.0274221870        6.8223171040
  H         6.2538409298        6.8611089559        0.1826795990
  H         4.5122942992        6.5211044138        0.6231278685
  C         5.3351615881        8.4817498027        1.2560558669
  C        13.0581019314       -0.2618927533       -2.8351639569
  S         5.6857282928        5.8290840790       21.2220474739
  C         6.0657154969        8.8195142015       21.3269834809
  H        17.2405810597        6.4490687582        7.7087944787
  H        17.6711663309        4.9327633989        6.8506798997
  C        19.2425583851        6.4286000705        6.9535531741
  H         5.9190224073        9.0505999659        0.5597660342
  H         5.6256602893        8.5630794484        2.2791374682
  C         3.8449427300        8.8004697971        1.1409569836
  H        12.8617118566       -1.3173164316       -2.8813014525
  C        13.5337442568        0.1305314794       -4.1052204200
  H         5.3823140298        8.3642893661       22.0715801669
  H         5.6251459642        9.7194733620       21.2098705091
  C         7.4373834459        8.8843230388       21.9683623508
  H        19.7167974891        6.1732272912        7.8970881205
  H        19.1965358330        7.5401243194        6.9048819595
  C        20.1660770305        6.0050400431        5.8421111299
  H         3.5033404928        8.7590098581        0.0238871959
  H         3.1129575266        8.1717439700        1.6826305551
  C         3.6867889279       10.2249716116        1.6031640250
  S        14.1135507832        1.6501560144       -4.5598280999
  C        13.5570915252       -0.9233052858       -5.1285697507
  H         8.2539986276        8.3671928027       21.4745061579
  H         7.3245964763        8.2824686765       22.8704685734
  H         7.7921905286        9.8674086925       22.1846387678
  H        19.9447913496        5.0269194845        5.4246645246
  H        20.1370917852        6.7895800969        5.1197874366
  H        21.2091042776        5.8866487292        6.1024821081
  H         3.1916839046       10.2480416226        2.5661169013
  H         4.6546865296       10.7165448619        1.7495300647
  H         3.0486830231       10.6378717873        0.8223660339
  C        14.3650268737        0.8984404295       -6.1270441943
  N        14.1475973664       -0.4596387748       -6.1907780678
  O        13.1074488342       -2.0269979049       -5.0149439469
  S        14.9818075979        1.6429754239       -7.6349959762
  C        14.0741149075       -1.2143188759       -7.5092445144
  H        14.1077722555       -2.2250042897       -7.0508479037
  H        14.9894487006       -1.0961952650       -8.0624585975
  C        12.8283839963       -1.0345079363       -8.3801328275
  H        11.9515698100       -0.7733926037       -7.7773319178
  H        12.6442879178       -2.1574957029       -8.7068189327
  H        12.9241617229       -0.3514175552       -9.2003444965
  H        -3.3988726166       15.1526677555       16.7378830153
  C        -3.2797718187       14.1308562602       16.5460973372
  H        -4.2056610950       13.6506108984       16.7275544989
  C        -2.1847268286       13.6750564205       17.4057354614
  C        -2.7880294466       13.8317346757       15.1319173266
  C        -2.4832868787       14.0093288754       18.8210214191
  H        -1.9458174248       12.6403795308       17.3054714697
  H        -1.2343597859       14.2144992566       17.0853064216
  H        -2.1110296794       14.5927993958       14.8360131561
  H        -2.2885211605       12.9085530097       15.0536063775
  H        -3.6519652188       13.8050137474       14.4308783366
  C        -1.4938809743       13.5378597337       19.9367857688
  H        -3.4943180972       13.6932955370       19.0724552611
  H        -2.5756966527       15.0645145078       18.8426196990
  C        -2.1107377447       13.6724019387       21.3400552928
  H        -1.3268701430       12.4952731212       19.7113984138
  H        -0.3794108905       13.8220609503       19.7880108445
  C        -1.2029255982       13.1287979974       22.4922590346
  H        -2.9755784438       13.0200907504       21.3738519699
  H        -2.2030155105       14.7003055286       21.6672690135
  C         0.1788208503       13.8818909330       22.6267258155
  H        -1.7967020581       13.2434479081       23.4022053624
  H        -0.9659807967       12.0844603731       22.3931477715
  C         1.3164195682       13.1422270256       23.4082220207
  H         0.4583745806       14.1275666707       21.6511547900
  H        -0.0502191889       14.8746369442       23.0913049416
  C         1.7322031131       11.8458668124       22.6909935255
  C         0.7925418265       12.4383480380       24.5568975392
  C         2.5231485635       14.1052833696       23.6501087644
  C         1.4575008044       10.7427440061       23.4844703939
  C         2.3838138774       11.4773857291       21.4700988107
  C         0.8662177575       11.1155157475       24.6795611543
  C         0.2018491157       13.0404756033       25.7005152520
  H         2.7661595423       14.6856591058       22.7301589267
  H         2.3568413033       14.8884234399       24.3495818037
  C         3.7733154779       13.3144157940       23.9240367657
  S         1.9571171000        9.2542424666       22.7464464625
  C         2.4776747209       10.1169633502       21.3145771727
  H         2.6931357949       12.1591665911       20.7359636049
  C         0.4451061074       10.4758371059       25.8691070953
  H         0.0357017786       14.0766602998       25.6755565484
  C        -0.1434642869       12.4066614138       26.8855632296
  H         4.1762306372       12.8002304842       23.0904346585
  H         3.5675691540       12.5036928927       24.6509205884
  C         4.8816175600       14.2348974778       24.3504500920
  C         2.9197128495        9.3895900292       20.0590998035
  C        -0.0493361401       11.1004293329       27.0306463562
  H         0.6367138210        9.3906921818       25.9448128316
  C        -0.4512460430       12.8523889383       28.1436502468
  H         5.5348269970       13.6883450597       24.9357201578
  H         4.3644140585       14.9566784846       25.0141796609
  C         5.7650157163       14.8150472306       23.2021359224
  C         2.7381145997        8.0201820169       19.8318695595
  C         3.4445468353       10.2532547089       18.9315184606
  C        -0.5042984093       10.4613327486       28.3633393060
  C        -0.7485103258       11.8147937771       29.0344971271
  S        -0.7351221382       14.3838470869       28.8325112605
  H         6.3694540310       15.6006131884       23.7170767611
  H         5.0972071600       15.3538248762       22.5397777784
  C         6.7270787536       13.8450835223       22.4585242814
  N         2.4363430639        7.0236038091       20.7212135005
  C         2.9514270082        7.5029850408       18.5649563490
  C         3.5973549545        9.6789366952       17.6494672569
  H         3.6560250658       11.2899145854       19.1051835323
  C         0.5619440887        9.6265973605       29.1457934957
  C        -1.7285540933        9.6639914490       28.1254697738
  C        -1.0656798672       12.2864729709       30.3067555453
  C        -1.0663701379       13.6338846930       30.3141578361
  H         7.7067469707       14.3288257723       22.3392412784
  H         6.8909487212       12.9464293507       22.9477034036
  C         6.1523223407       13.4453000156       21.0124441714
  S         2.2616739564        5.5456460369       19.9855393038
  N         2.5587111405        6.1555804395       18.4805549238
  C         3.3458204663        8.2506230508       17.4245177552
  H         3.9364632726       10.3163328003       16.8775302206
  H         0.8462356418        8.8754786923       28.4616382685
  H         0.1575169179        9.0731629436       29.9209294218
  C         1.7043517316       10.4371524939       29.6534586870
  H        -1.4469673996        8.8365619798       27.4546089639
  H        -2.1494733182        9.2351726391       29.1013598617
  C        -2.9279137585       10.5447719152       27.6157166728
  H        -1.2258866663       11.5635755754       31.0699079265
  C        -1.2640200364       14.4458465822       31.5706197460
  H         5.4926951971       14.1981179859       20.6732412408
  H         5.6097026243       12.5304259647       21.0529434627
  C         7.2712371945       13.5285420478       19.9440030473
  C         3.6264935843        7.6344769379       16.1510709213
  H         1.9529736769       11.1312633855       28.8161097514
  H         1.3866267364       11.0613079363       30.4409558380
  C         2.9407362093        9.6244128994       30.0422384901
  H        -2.7074434839       10.9514078479       26.6792268048
  H        -3.2179537025       11.3040575372       28.3420336427
  C        -4.1701734751        9.6943610839       27.4290339283
  C        -1.3413754267       15.8094110532       31.6916762460
  C        -1.4042086525       13.7097404900       32.8367023974
  H         7.9450523759       14.3169270815       20.0689238805
  H         7.9404753117       12.6340875109       19.9462072824
  C         6.7313434012       13.8112952688       18.5436657995
  H         3.3868098204        6.5967131023       16.1059433727
  C         3.9589949916        8.0518174427       14.8790189209
  H         3.3738517262        9.1548377123       29.1449054923
  H         2.7723945755        8.7660402767       30.6421861013
  C         4.0966522672       10.5438652810       30.5171927581
  H        -3.8436394904        9.0887158778       26.5822763962
  H        -4.4568295183        9.0042258116       28.2759928681
  C        -5.2949520509       10.5986291780       26.9150794290
  N        -1.2853260753       16.6733640940       30.6248037317
  C        -1.7061608170       16.4000427915       32.8584258487
  C        -1.7083108807       14.3287422874       34.0125762136
  H        -1.2835209194       12.6644061151       32.8979019480
  H         7.0585865097       12.9906085276       17.9354752771
  H         5.6422973901       13.7490831570       18.4569216834
  H         7.0725195097       14.7773155370       18.2224192614
  S         4.3118685713        9.6231955924       14.3997571628
  C         4.0383189092        6.9853714843       13.8000011882
  H         4.1506966723       11.4021156307       29.8244351185
  H         3.9516324060       10.9336175925       31.5201629481
  C         5.5058904061        9.9878140563       30.5082165832
  H        -4.8193860929       11.0809500584       26.0187580139
  H        -5.6016785595       11.3565496977       27.6467484109
  C        -6.5356720970        9.8658826641       26.5009263929
  S        -1.6008018407       18.1426621374       31.2295116748
  N        -1.9989589057       17.6806400659       32.7257511757
  C        -1.9574541243       15.7425071777       34.0543300754
  H        -1.8573527053       13.7911353074       34.9163453983
  C         4.4232467795        8.9534550053       12.7556146468
  N         4.4558945027        7.6247338846       12.6566075296
  O         3.5687592160        5.8606046724       13.8641406249
  H         6.0916193212       10.8096716253       31.0048945479
  H         5.8568449462        9.9751616582       29.4712865074
  C         5.7288460101        8.8072292088       31.4426282003
  H        -6.0919955318        9.1803403505       25.8382952505
  H        -7.0548010952        9.4136894049       27.3344579278
  C        -7.4353796907       10.7541173737       25.7390037971
  C        -2.2182213723       16.5091015891       35.2410559455
  S         4.8872777287        9.9617739301       11.3813897961
  C         4.5236184477        6.9882171663       11.3700769165
  H         6.6123182099        9.0475060488       32.0195707653
  H         4.8692057351        8.6843644170       32.1135894634
  C         6.0900513343        7.4414916607       30.7350212793
  H        -6.9280904047       11.3916105144       24.9668207322
  H        -7.7368945753       11.5620869943       26.3580905850
  C        -8.6094436423       10.0996595897       25.1945268569
  H        -1.9227439016       17.5443066695       35.2277188228
  C        -2.7820345736       16.2121602814       36.4475161289
  H         5.3384140176        7.4154300895       10.8068336035
  H         4.8163574623        5.9355689147       11.3105513734
  C         3.0929801530        7.1023601345       10.7764363312
  H         7.1417462610        7.5966945046       30.4030666184
  H         5.5892221606        7.3018076557       29.7789397168
  C         6.1166112676        6.1789417607       31.5587207036
  H        -8.7994819537       10.5806095460       24.2115712435
  H        -8.3786215300        9.0355862510       25.0410659822
  C        -9.8687827704       10.3068538903       26.0837678918
  S        -3.4279159647       14.7091055133       37.0606133255
  C        -2.8643854833       17.2903665406       37.4388807683
  H         3.0884899597        7.7841511983        9.9564565420
  H         2.8339604053        6.1279660010       10.3230785520
  H         2.4365154256        7.2266638683       11.6381819660
  H         6.4101920403        6.3174354977       32.6043463009
  H         6.8081006650        5.5048054637       30.9557043123
  H         5.1130412560        5.8514943429       31.5279511527
  H       -10.0318694498        9.3977837754       26.6240628764
  H       -10.7798534606       10.3635932969       25.5083258642
  H        -9.7852453373       11.1847181598       26.8071163562
  C        -3.8420931763       15.5671679845       38.5459997954
  N        -3.5835400447       16.8994724765       38.5011232757
  O        -2.4296301016       18.4320084318       37.2704146080
  S        -4.7983683070       14.9460215946       39.8482551328
  C        -3.7797094244       17.7756360961       39.6062591720
  H        -3.7871317607       18.7605605314       39.1110662326
  H        -4.7580123770       17.6494687523       40.0154368928
  C        -2.6948118372       17.6336702630       40.6575464272
  H        -2.8082151867       16.7267154523       41.2189282456
  H        -1.8072554178       17.7870001664       40.1277587107
  H        -2.6429482614       18.4180993927       41.3662300264
