352
i=
  H         4.0499216989        1.1725225498       13.1133568243
  C         3.8579854608        2.2364211298       13.1761819819
  H         4.7462177847        2.7995362564       13.1226950598
  C         3.0777806731        2.5573233835       11.9073025403
  C         3.1723020246        2.6270781918       14.4724318531
  C         3.9451812474        2.6547657866       10.6686944929
  H         2.4441323247        3.4258126386       11.9734416142
  H         2.3762032904        1.6972905136       11.6397256192
  H         3.0099098768        1.7828272392       15.1401084943
  H         2.1616700784        2.9511197313       14.3590795696
  H         3.6762618854        3.4404514919       14.9599894604
  C         4.7176003895        1.4055307219       10.2941106734
  H         3.3430052586        2.9922818168        9.8396055233
  H         4.7364222773        3.3597582176       10.8447553733
  C         5.1262370221        1.2677403615        8.8664953099
  H         4.1164167809        0.4838142022       10.4518995467
  H         5.5693412768        1.1980969502       10.9453166490
  C         6.4061831795        2.0650042549        8.4568195021
  H         4.3034618914        1.6165347484        8.2001196764
  H         5.2590070366        0.1706775623        8.6489268990
  C         7.6876424605        1.4635209173        8.9803813122
  H         6.4097872089        2.1581326329        7.3100553803
  H         6.2272297699        3.0447958323        8.9674415051
  C         8.8387289163        2.4805912684        9.2853903975
  H         8.0519918949        0.6678349306        8.2305671060
  H         7.5379795866        0.9728874393        9.9066337979
  C         8.4234206533        3.8628432979        9.8925511686
  C         9.3979616438        3.1452810677        8.0720339024
  C        10.0579659696        1.8514140267       10.0834765959
  C         8.7300651413        4.9624089478        9.1001118607
  C         7.8988885983        4.3619841868       11.0813470202
  C         9.3035287047        4.5307875381        7.9142847527
  C         9.9937002838        2.5360764999        6.9444588995
  H         9.6735786555        1.0751780581       10.7141180024
  H        10.6841559415        1.3974830215        9.3024633149
  C        10.8872465497        2.9065055970       10.8841987366
  S         8.4433529983        6.4966660848        9.7890675727
  C         7.9138729173        5.7339249512       11.1693112834
  H         7.6817962873        3.6199077689       11.8201373885
  C         9.8144545947        5.1237910106        6.8124113984
  H         9.9760011112        1.5041221218        6.8564674105
  C        10.4184970358        3.1535110445        5.8178913047
  H        10.4206990282        3.4139619280       11.6066835176
  H        11.1754768072        3.8393079454       10.2449919177
  C        12.1178565666        2.3803520905       11.5831686662
  C         7.5968444993        6.4621168961       12.4575474247
  C        10.2902370936        4.4977771302        5.6510011529
  H         9.8123869679        6.2089124361        6.8690487775
  C        10.8658758041        2.7093384066        4.5898338590
  H        12.8860756073        3.1670792563       11.7484325049
  H        12.5538036157        1.6973269879       10.7928868466
  C        11.9664265708        1.6550894307       12.8890486966
  C         7.7032801413        7.8496559272       12.7433021369
  C         6.9684709463        5.6617519358       13.5818452468
  C        10.6995651302        5.1883332627        4.3817738704
  C        11.1373072619        3.8359764202        3.7913314718
  S        11.0813146569        1.1720262480        3.7861594060
  H        11.0000526933        1.2360135962       13.0356315633
  H        12.5984602306        0.8381386672       12.7581084165
  C        12.3925176524        2.5916313276       13.9982473664
  N         8.0953909051        8.7428536899       11.7663771422
  C         7.3685451660        8.4109282245       13.8742563275
  C         6.7826695177        6.2464498475       14.7818071264
  H         6.7752907795        4.5882431190       13.4459540456
  C        11.8588400544        6.1187595186        4.5108140813
  C         9.4922231728        5.7930803456        3.6410188924
  C        11.5681613153        3.3720678684        2.5203062817
  C        11.4950215196        2.0049958178        2.3620855505
  H        11.8501464667        3.5146045587       14.0352362267
  H        13.3980063791        2.9367992275       13.8062247047
  C        12.4407219436        1.9449240767       15.3492126038
  S         8.0627758958       10.2102222633       12.3848359122
  N         7.6253916682        9.8015829862       13.8984352359
  C         6.9201722207        7.6968171458       15.0201850735
  H         6.1677163284        5.8051920406       15.5448288282
  H        11.5319791431        7.0705070959        5.0291897809
  H        12.1865102889        6.4783168132        3.5011222328
  C        13.1322726940        5.5425805339        5.2505595895
  H         9.0326213965        6.4133610792        4.3252375536
  H         9.8215233034        6.3797431226        2.8362893224
  C         8.4549175183        4.7628836772        3.1721613836
  H        11.8521737642        4.0899730949        1.7759890974
  C        11.8222779064        1.2704974381        1.0572055877
  H        11.5332819602        1.3390616648       15.4658576786
  H        13.2575454747        1.1737356720       15.3705778698
  C        12.7691983323        2.8773921272       16.5106101734
  C         6.6013480738        8.4091871216       16.2359372419
  H        12.7854917291        5.2442857920        6.2225501750
  H        13.5185606172        4.6581074608        4.6726493054
  C        14.2987767795        6.5552838861        5.3719348145
  H         8.4370008678        3.9594780529        3.8908760312
  H         8.7309759078        4.4068487128        2.1312069556
  C         7.0766982995        5.4091468564        3.1161979571
  C        11.8460168300       -0.1554388499        0.8458451889
  C        12.1439616286        2.0881761845       -0.1287911595
  H        12.1524368178        3.7575786567       16.2878135369
  H        13.7530393692        3.2852720950       16.3311500245
  C        12.6472136646        2.2485602967       17.8297312346
  H         6.5251006838        9.4806441513       16.0638967928
  C         6.4509291015        8.0328054545       17.5497034186
  H        13.8235952859        7.4296457230        5.7371614268
  H        14.7831911768        6.6110884099        4.4247929279
  C        15.3510311713        6.1148152438        6.3958011000
  H         6.4439382635        4.7738673893        3.7618520495
  H         7.0205739120        6.4496016600        3.4724950719
  C         6.4578337183        5.2950273855        1.6527768494
  N        11.8023473448       -1.0523978103        1.8699099451
  C        12.1269343943       -0.7841346825       -0.3588603812
  C        12.3436675515        1.4337710267       -1.2920676018
  H        12.1258420578        3.1694796681       -0.0798840972
  H        13.4623299181        1.4254641912       18.0778788620
  H        11.6355187631        1.8439293481       17.9391996707
  H        12.6663534087        3.0789060633       18.5767604218
  S         6.1518310328        6.4527497975       18.1129390298
  C         6.4605280364        9.1449196260       18.5694748911
  H        15.6165123787        6.9693125574        7.0194748094
  H        14.9005435513        5.4002046523        7.1753291153
  C        16.5845724297        5.5192921413        5.6734333130
  H         6.5132135700        4.2815769221        1.3300119931
  H         7.0236976025        5.9548338201        0.9576585604
  C         4.9149610745        5.4927319552        1.7695001655
  S        11.8275526213       -2.5625211327        1.3105627852
  N        12.2535512791       -2.1867111916       -0.2243117769
  C        12.3925015779       -0.0645745050       -1.5241029427
  H        12.3862678090        2.1189945824       -2.1887731692
  C         6.1108572863        7.3090977657       19.7414480985
  N         6.1929582316        8.6215398579       19.7369411279
  O         6.7031097499       10.2869613704       18.2931148660
  H        16.3158754687        4.7182539032        4.9934608502
  H        16.9548120528        6.3092594296        5.0965831901
  C        17.5629426497        4.9201592819        6.6792860200
  H         4.4094258789        5.1796108835        0.8086258178
  H         4.6118529545        5.0422202339        2.6853137188
  C         4.6019176163        6.9776396254        1.8739877775
  C        12.8196054719       -0.7242351506       -2.7289480682
  S         5.6246691259        6.5164497308       21.2108597853
  C         6.2280978837        9.3792894565       20.9601907713
  H        17.0071018723        4.3456722092        7.4535586854
  H        18.1660422618        4.1385903676        6.2179572572
  C        18.6020004998        5.8695959353        7.2064642015
  H         5.2968547948        7.3898500304        2.6637804123
  H         3.5211782523        7.0090589225        2.2025936067
  C         4.7460873336        7.7436252983        0.5326780885
  H        12.4401665478       -1.7238226145       -2.7345400605
  C        13.4670065139       -0.3611615289       -3.8879276662
  H         5.4392410103        9.1274540973       21.6900951243
  H         6.0872568052       10.4657842173       20.6401820754
  C         7.5793877009        9.4139810960       21.5733944006
  H        19.1032148069        5.4766877914        8.0703950002
  H        18.1675816769        6.8290599894        7.4667311644
  C        19.5847924556        6.2146511885        6.1316531997
  H         5.7588352263        7.7772373960        0.1131477134
  H         3.9953879197        7.2637346422       -0.1211354910
  C         4.5551432670        9.2474880504        0.6232293069
  S        13.9362697626        1.2508923498       -4.1879327102
  C        13.5052834431       -1.3270060856       -5.0336527607
  H         7.8944797566        8.4087239363       21.7763713271
  H         7.4623386214        9.8989395377       22.4675762136
  H         8.2762404810        9.9567015926       20.9399828895
  H        19.3320161864        5.6857218765        5.1704245921
  H        19.4935960366        7.2101384261        5.8786861959
  H        20.5806378329        6.1178034339        6.4889272559
  H         4.7984362384        9.6939035280        1.6079776758
  H         5.1565637391        9.6950151592       -0.1094381940
  H         3.5778240681        9.6351497036        0.3677828011
  C        14.2503873855        0.7751579739       -5.7805059588
  N        14.1158071598       -0.5792654493       -5.9937721512
  O        13.3275685400       -2.5393530809       -4.9424246081
  S        14.8103638408        1.7790500048       -7.0552015207
  C        14.4768422613       -1.2220577343       -7.3043440910
  H        14.8944070508       -2.2194680397       -7.0894307995
  H        15.2646533327       -0.6738047830       -7.8376958508
  C        13.3289585236       -1.2658322587       -8.3120979587
  H        12.2939623343       -0.9986539441       -8.0797038043
  H        13.3229899758       -2.1916768843       -8.9742974973
  H        13.6994332911       -0.5795547582       -8.9993091568
  H        -4.0642016908       13.0287537775       16.7191041258
  C        -3.0901163027       12.6380521131       16.5870906131
  H        -3.0406986674       11.6943672571       17.1608677608
  C        -2.2025371643       13.7406737093       17.1998057304
  C        -2.7910759342       12.4765201176       15.0803820740
  C        -2.4049231517       14.0131991137       18.6614510387
  H        -1.2138530632       13.3650570827       17.2464217095
  H        -2.2490696577       14.5855110794       16.5436745139
  H        -1.9614921622       11.8563988747       14.9037431598
  H        -3.5588796705       12.1097679871       14.5048414255
  H        -2.5414059100       13.4120741796       14.6503549137
  C        -1.4479837076       13.1342128254       19.4913530931
  H        -3.4036526430       13.8443166614       19.1030893106
  H        -2.1624562146       15.0752310650       18.7758467851
  C        -1.7970661476       13.0494364213       21.0198006190
  H        -1.4905823885       12.1186420061       19.1305952192
  H        -0.4014791131       13.3330556552       19.2709492508
  C        -0.7672450749       12.4147525975       21.8891918445
  H        -2.7649257633       12.6682438832       21.1683252287
  H        -1.9484981968       14.0860951626       21.2785115465
  C         0.2743936130       13.4451972971       22.3650966009
  H        -1.1831589558       11.9378248112       22.8200218717
  H        -0.3167831835       11.6026680931       21.3624249109
  C         1.4555615042       12.7620325948       23.1115076027
  H         0.6150756675       14.0542382093       21.5207072520
  H        -0.2946861547       14.1313718809       23.0626954324
  C         1.8544155031       11.4496781532       22.4662566291
  C         1.0774742627       12.0534724367       24.3472622015
  C         2.6528745806       13.8081299077       23.3237832885
  C         1.6759807974       10.3015578461       23.2420663886
  C         2.3670162785       11.0702561222       21.1793290955
  C         1.2547828149       10.7254426250       24.5072596513
  C         0.4021076028       12.7273706863       25.3988980386
  H         2.7941966625       14.3632839474       22.4153519207
  H         2.2121820053       14.6031554684       23.9304813277
  C         3.9056499956       13.2918930818       23.9917330265
  S         1.8695305560        8.8069844417       22.3983114519
  C         2.3678462091        9.7406779681       21.0038019726
  H         2.5849656034       11.8395107852       20.4299360873
  C         0.7318879151       10.1209027491       25.6410546232
  H         0.3659395151       13.8052929760       25.3579320971
  C         0.0671175453       12.1544342703       26.5907771890
  H         4.4060963003       12.6092979426       23.2284502077
  H         3.5859316500       12.7468978849       24.8725310824
  C         4.8802881757       14.3678014027       24.4023662959
  C         2.6723942353        9.0083161768       19.7606750606
  C         0.2015786460       10.8126388468       26.7577920529
  H         0.6848770828        9.0045475600       25.7116055095
  C        -0.3421473126       12.6421536928       27.7687786986
  H         5.6484092633       13.8780146603       25.0059781149
  H         4.4181723373       15.1089826904       25.0593832715
  C         5.4850144018       15.0413715723       23.1683838178
  C         2.6120907558        7.6487004966       19.4896212395
  C         3.2120280844        9.8640555891       18.6585826489
  C        -0.2501896815       10.1576426999       28.0857166641
  C        -0.5362357752       11.5922176120       28.6766647173
  S        -0.6444260387       14.2349130676       28.3696229064
  H         5.8847189634       15.9408658082       23.6291040905
  H         4.7824148839       15.3558990321       22.4179715623
  C         6.6603646534       14.2668895629       22.5771339989
  N         2.3956983708        6.6121294318       20.4271360912
  C         2.7496151527        7.1176676544       18.2228045517
  C         3.3870586097        9.3079093769       17.3882517024
  H         3.4190085573       10.9750946625       18.8278558509
  C         0.9086106080        9.3516657850       28.8539563131
  C        -1.4747395344        9.2801420972       27.8888512125
  C        -0.8960831930       12.1534985562       29.9047791749
  C        -0.9521355349       13.5091274881       29.8979575571
  H         7.3968245203       14.9771929007       22.4047223163
  H         6.8986870420       13.4414733136       23.2176631348
  C         6.3153257520       13.6448875529       21.2643589941
  S         2.1699983464        5.2072237847       19.6584764101
  N         2.5530668823        5.7237149710       18.1785795348
  C         3.1881336577        7.8509873278       17.1005280484
  H         3.6633527876       10.0335994407       16.6348824354
  H         1.2525797733        8.5121587417       28.1825795666
  H         0.5041801957        9.0555437230       29.8258469401
  C         2.0710763039       10.2894799587       29.2552349578
  H        -1.2574753178        8.4347309612       27.2462337809
  H        -1.6798634631        8.7846004997       28.8526980695
  C        -2.7064113064       10.0006012004       27.3810961929
  H        -1.0900145311       11.4214646091       30.7501220252
  C        -1.1737170967       14.3067262212       31.1124254871
  H         5.4932111915       14.2037036844       20.7885910288
  H         5.8522490301       12.6645155992       21.5098332489
  C         7.5258017001       13.5514849774       20.3389260365
  C         3.4150532861        7.1497444851       15.8885319701
  H         2.5105758761       10.9205432126       28.4427801856
  H         1.7057497036       10.9439623839       30.0681829714
  C         3.1909598890        9.4491531754       29.7685842523
  H        -2.5722491884       10.3901725105       26.3725284870
  H        -2.8015000062       10.8594471969       28.1010078557
  C        -3.9295613092        9.1424827384       27.5985365412
  C        -1.2702676672       15.7046533576       31.1831954695
  C        -1.5692907880       13.5517110531       32.3378877530
  H         8.2371242868       14.3243442501       20.5720450407
  H         8.0214965412       12.6404313954       20.5618777810
  C         7.1854589388       13.6788389786       18.8926757042
  H         3.5172942996        6.1105642769       15.9726486572
  C         3.5822456469        7.6120867525       14.6062174530
  H         3.4954065914        8.8406158392       28.9042940623
  H         2.7329181969        8.9244300668       30.5458949595
  C         4.3209741738       10.3099984648       30.2850556137
  H        -3.9750917458        8.3130618490       26.8671537161
  H        -3.8421520734        8.8452147208       28.6847796258
  C        -5.1795823744        9.9332569890       27.5369181879
  N        -1.0342241843       16.5525864277       30.0810806809
  C        -1.5835856982       16.3724588779       32.3291360113
  C        -1.7636190945       14.2164112841       33.5770457350
  H        -1.3503566682       12.4952707405       32.4916586708
  H         6.1903558466       14.1667568128       18.8111043859
  H         7.8702779987       14.2595036943       18.3241609367
  H         7.2384326598       12.7875446296       18.3012265618
  S         3.9010725248        9.2669686413       14.1113801125
  C         3.7562438179        6.6260287412       13.4582489176
  H         4.3428954492       11.2620846144       29.6721895295
  H         4.0307987108       10.5660586303       31.3084708281
  C         5.6255283240        9.6379116671       30.2187167430
  H        -4.8742573658       10.8996195239       27.0629984006
  H        -5.6092884024       10.2316287206       28.4822756465
  C        -6.2434971898        9.3354550513       26.5590120186
  S        -1.3347506486       18.0991468380       30.5486950360
  N        -1.5441850433       17.8006053456       32.1212975434
  C        -1.8349863193       15.7326824510       33.5814788520
  H        -1.9492687686       13.5702549632       34.4881140479
  C         4.3715786541        8.6465844885       12.5813915773
  N         4.2485614101        7.3148365541       12.4250357360
  O         3.6737593853        5.3857927132       13.6122568955
  H         6.3855218347       10.2784041375       30.6710599273
  H         5.7969129773        9.5806144970       29.1596644031
  C         5.7243279289        8.2975176300       31.0213662140
  H        -5.7731245039        8.7526868386       25.8513088919
  H        -6.8438601194        8.6530035550       27.1210475525
  C        -6.9741858779       10.4084417307       25.8299363517
  C        -2.2549298669       16.5732413493       34.7154697710
  S         5.0372325726        9.5577746095       11.2392347738
  C         4.4113695080        6.5841403048       11.1641547049
  H         6.1916304091        8.3848221616       31.9975836512
  H         4.7426786347        7.8696867812       31.2005143000
  C         6.5537109863        7.1042299516       30.3017445550
  H        -6.4136346333       10.5894385318       24.9274595714
  H        -6.9147473386       11.3015759792       26.4020563602
  C        -8.3133933886        9.9245348164       25.5146231751
  H        -2.2618817330       17.6438074873       34.5342364633
  C        -2.7215371385       16.3587130109       35.9690819385
  H         5.2442136996        7.0731496245       10.6420844835
  H         4.7323400306        5.6376783589       11.4768870559
  C         3.1157354611        6.5683854422       10.3562650719
  H         7.5936903206        7.4413824447       30.0817957187
  H         6.0955034377        6.8545724974       29.3193316081
  C         6.5999803056        5.9347946728       31.3297363402
  H        -8.5539790239       10.1633671121       24.4562024800
  H        -8.2386922918        8.8789818112       25.4891357245
  C        -9.4622889193       10.3744579181       26.4588314425
  S        -3.0261535123       14.8577678976       36.7915371218
  C        -2.9591929228       17.5447989473       36.8528415952
  H         3.1499410839        5.6260474508        9.7588075236
  H         2.1601020901        6.5672840619       10.9377941219
  H         3.1628301345        7.3771168836        9.6289447247
  H         5.6867077658        5.4786409417       31.5598147241
  H         6.9918460171        6.2290507266       32.3101580845
  H         7.2060632205        5.0398913543       30.9342883922
  H        -9.2758727754       11.3445273088       26.9450293415
  H        -9.6635884527        9.5373366729       27.1746781286
  H       -10.3668532826       10.4671113768       25.9337697595
  C        -3.5631086033       15.8142482134       38.1496340691
  N        -3.5506634967       17.1194600155       37.9860016610
  O        -2.7467970278       18.7302302956       36.6040796416
  S        -4.2998541173       15.2281655026       39.6689545221
  C        -3.9500227058       18.0919800671       38.9908185744
  H        -4.3584353691       19.0706096699       38.6425485353
  H        -4.7589712092       17.6831943243       39.4570679600
  C        -2.8734118194       18.3371276751       39.9352778240
  H        -2.9903877085       19.2904693703       40.4680020575
  H        -2.8956911681       17.5314676526       40.6540932344
  H        -1.9120510179       18.3446871271       39.4796483055
