352
i=
  H         5.3756724885        1.8131878365       13.0100750194
  C         4.4221373106        2.3132781230       13.1153523344
  H         4.6585618189        3.3233691377       12.9368339010
  C         3.3997314985        2.0004617958       12.0644993226
  C         3.8255397676        2.1602604185       14.5231024571
  C         4.0063670369        2.5509930214       10.6332538265
  H         2.4577902141        2.4829962286       12.3221326704
  H         3.2002930324        0.9100402107       12.1212886527
  H         4.4883813054        2.8424501634       15.0485826988
  H         4.0810933589        1.2919097679       15.1419293255
  H         2.7648042983        2.3367907088       14.4796671933
  C         4.8050508432        1.4362022400        9.9623139160
  H         3.2901305052        2.9876526921        9.8853283226
  H         4.7351191053        3.3445654672       10.8822660777
  C         5.4246832797        1.7724667536        8.5865524509
  H         4.0725919273        0.6815643724        9.6994857751
  H         5.5113751522        1.0278577813       10.6836139974
  C         6.6113182893        2.7163624553        8.6975431584
  H         4.7593929961        2.2864853272        7.9124340741
  H         5.6742714072        0.9065021919        7.9929342447
  C         7.8012651153        2.0038497749        9.3055349904
  H         7.0136924588        3.1166283052        7.7365041517
  H         6.4309156346        3.5684919070        9.3998468390
  C         9.0584573976        2.8397891937        9.6086828107
  H         8.0367792992        1.1817959835        8.5940840945
  H         7.4988946605        1.4478648328       10.1645588103
  C         8.6577839674        4.0932883378       10.2452004089
  C         9.5597154853        3.4645537793        8.3550596861
  C        10.1897330020        2.0968600292       10.3563541039
  C         8.9097205161        5.1976933567        9.4450679937
  C         8.1763418871        4.4579203459       11.5142504206
  C         9.4835436179        4.8058230729        8.2024028102
  C        10.1014558957        2.8688665373        7.1798750922
  H         9.7535294109        1.7364487534       11.3238588837
  H        10.3264893549        1.2056169148        9.7715038071
  C        11.5126703691        2.8688959058       10.4930688106
  S         8.4791222817        6.6909085978       10.1717686740
  C         8.0292214119        5.8539060743       11.6036097365
  H         7.9421571109        3.5628716730       12.1012244643
  C         9.8187981003        5.4361481771        7.0230377098
  H        10.0555522548        1.8335558350        7.1510385803
  C        10.4052242566        3.4364413788        6.0049442220
  H        11.2881823095        3.8394369060       10.9135458619
  H        11.8832572244        3.1376324530        9.4753082162
  C        12.5498656313        2.2559734477       11.4102539087
  C         7.4756343809        6.5352341218       12.7726007473
  C        10.2068744935        4.7798167618        5.8473001969
  H         9.8234008352        6.5273701777        7.1229837913
  C        10.7741140327        3.0378042944        4.7721065237
  H        13.4007781693        2.9447959908       11.6208181148
  H        13.0180684291        1.4334564339       10.9286452630
  C        12.0686365728        1.9590605111       12.8067488929
  C         7.3995859999        7.8972721965       13.0966411693
  C         6.9401980562        5.6710514189       13.7931419247
  C        10.6492528344        5.4738705313        4.5999759303
  C        10.9362023880        4.0966872691        3.9321164002
  S        11.0133692432        1.5087547518        4.0593194272
  H        11.5071386008        2.8440330251       12.9786414132
  H        11.3028062012        1.1836852413       12.9167756842
  C        13.3247917466        1.8315705881       13.6166325458
  N         7.8021943479        8.9075905133       12.2305289496
  C         7.0794494967        8.3959172183       14.3753524351
  C         6.5050016490        6.1179615419       15.0593981654
  H         6.8200759575        4.6359971134       13.5523483807
  C        11.9310776360        6.2702801983        4.7638819314
  C         9.5159852060        6.3256864438        4.0113796880
  C        11.2997709987        3.6443954383        2.6608842083
  C        11.3038457074        2.2591095438        2.5269241161
  H        13.6714575434        2.8351313246       13.8160699192
  H        13.9741052874        1.3160143747       13.0156667569
  C        12.9571405951        1.1578119027       14.9204482224
  S         7.6165010164       10.3270630168       12.9412576663
  N         7.2290219965        9.8080502280       14.4230525515
  C         6.7071639994        7.5191594433       15.4335640588
  H         5.9824127745        5.4379265883       15.7352847573
  H        11.7777280964        6.8557640586        5.6273295592
  H        12.0207031906        6.9098473665        3.9078540734
  C        13.2434355489        5.5248948389        5.0348619331
  H         9.1693335264        7.0019775640        4.7952659603
  H         9.8105930351        6.9342410498        3.1889579084
  C         8.2382216000        5.5327883505        3.5464578883
  H        11.4373658496        4.3604464543        1.8584635367
  C        11.6722988345        1.4985296758        1.2964298876
  H        12.3874450050        0.2581094732       14.8124829721
  H        13.7330101237        0.6575438717       15.3033198515
  C        12.1906645883        2.1491903477       15.9001310359
  C         6.5302207856        8.0206753304       16.7658868198
  H        13.0334905137        4.7640953144        5.8138013116
  H        13.3831546196        4.8690485292        4.1974233847
  C        14.4260179845        6.4285425972        5.2362042035
  H         7.6137865596        5.4993854248        4.4456774935
  H         8.5126739626        4.4993463621        3.2364237174
  C         7.5605182551        6.2260958595        2.3680921655
  C        11.8542236352        0.1072286170        1.2542191824
  C        12.0753728750        2.2886342926        0.1176683221
  H        11.1935062963        1.8937826005       16.2599400740
  H        12.0758265284        3.1571724341       15.4782822267
  C        13.0427222246        2.4220831292       17.1792219758
  H         6.6375603920        9.0562459425       16.8151798033
  C         6.2261532143        7.4998669962       17.9873925780
  H        14.2566574584        7.1554936120        5.9997061508
  H        14.4293243452        6.9950876041        4.3167696150
  C        15.6941473048        5.5978772233        5.3802155208
  H         8.1532576256        7.0821892449        1.9229363104
  H         7.3725366060        5.5138498129        1.5364432806
  C         6.2470228409        6.7966143929        2.8989060669
  N        11.6169486909       -0.8078117772        2.2769532301
  C        12.2193797226       -0.5741560920        0.1184244758
  C        12.4584867500        1.6318974110       -1.0385159212
  H        12.1112134582        3.3966434845        0.1153953374
  H        12.5533613660        3.0432641692       17.7596857085
  H        13.9679836706        2.9801193196       16.8941117574
  H        13.2600783024        1.5167750397       17.7549401147
  S         6.0550855768        5.8186038463       18.4047707557
  C         6.0964023329        8.4852727827       19.0575879096
  H        15.5036383155        4.5530892379        5.3309321384
  H        16.4370534099        5.7685360593        4.6517005908
  C        16.3296490737        5.9782322710        6.7432559561
  H         6.4040870078        7.2978565548        3.8376119204
  H         5.6313454487        6.0337511286        3.1222872790
  C         5.4912603168        7.7201011001        1.9325776175
  S        11.8087813658       -2.3228163435        1.7509500580
  N        12.1804461498       -1.9860764468        0.1717057995
  C        12.4305077396        0.1155016586       -1.1156927307
  H        12.7661810624        2.2577112255       -1.8376121696
  C         5.7076211588        6.4605703227       20.0139634718
  N         5.8077116895        7.8008634932       20.1597486332
  O         6.1967078490        9.7012499649       18.9642034101
  H        16.7966993510        6.9476815736        6.6582336433
  H        15.5690560552        6.0413040584        7.5526248539
  C        17.4312453215        4.9963747639        7.0862369052
  H         6.0971506761        8.3607763563        1.2525397973
  H         4.8856032452        7.1559449600        1.2007665645
  C         4.5875183305        8.7119525440        2.6923728699
  C        12.5574168135       -0.6471989044       -2.2626326958
  S         5.1400241990        5.4925654313       21.4047394043
  C         5.9075072086        8.5228541101       21.4781854655
  H        16.9743169737        4.2293662966        7.6792595619
  H        17.7881062620        4.5919776545        6.1951803508
  C        18.5195945888        5.6177749338        7.8620235416
  H         4.9666824819        8.8570231638        3.7217322572
  H         3.6177354505        8.2691248827        2.8270925364
  C         4.4922249194       10.0060187877        1.8481373346
  H        12.3191130534       -1.7142327002       -2.2031899575
  C        13.0771600209       -0.2501817378       -3.4953181491
  H         5.4373007571        7.9593773504       22.2768533240
  H         5.4237307401        9.4877442886       21.4309059438
  C         7.3682600022        8.7102818301       21.9379566015
  H        18.8019717073        4.8386888310        8.5197984648
  H        18.0607222960        6.3627219037        8.4716853674
  C        19.6293114093        6.1219134952        6.9576049585
  H         3.7413070393       10.6738161273        2.2622910551
  H         5.4733448471       10.4973303829        1.8511649329
  C         3.9849340595        9.7694943306        0.4252641383
  S        13.7813752333        1.2619180472       -3.9109653536
  C        13.2187359203       -1.2661569837       -4.5497053066
  H         7.6572313332        7.9440011005       22.6572203880
  H         7.4493384712        9.5961215004       22.5025215028
  H         8.0140148636        8.6994801586       21.0405786295
  H        19.2505146222        6.9807522731        6.5380160310
  H        20.5262510747        6.3777468609        7.6234006468
  H        19.9837450363        5.3425798637        6.2799441184
  H         3.9421606621       10.7241382010       -0.0427692523
  H         4.7246006470        9.1114440347       -0.0711144184
  H         3.0140781318        9.2839327853        0.4415797951
  C        14.0918389991        0.6329768887       -5.5791808098
  N        13.8171401990       -0.6674052665       -5.6296308727
  O        12.9837517736       -2.4271640371       -4.4737464987
  S        14.8043519583        1.5673210845       -6.9440627201
  C        14.0343397269       -1.3934019676       -6.8601359642
  H        14.3068990335       -2.4013352954       -6.5737787192
  H        14.8389613834       -0.8248420203       -7.3558304598
  C        12.8259756467       -1.4281269848       -7.7367742758
  H        12.8278842360       -2.3756692002       -8.2818740958
  H        12.6580045621       -0.5732275063       -8.3260922042
  H        11.9387038224       -1.5407777430       -7.1579996226
  H        -3.7047014027       14.9212534460       16.2104038028
  C        -3.3437765242       13.8710961414       16.5605438475
  H        -4.1668330030       13.4644466273       17.1315852293
  C        -2.1893850468       13.9232924206       17.5705882481
  C        -2.9839265974       13.1342980323       15.2534918132
  C        -2.5318983068       14.1055274958       19.0591163811
  H        -1.7490399313       12.9261945694       17.3918016314
  H        -1.4015300138       14.6561216634       17.2854310722
  H        -2.9515833193       12.0618907586       15.4382051345
  H        -3.7741976480       13.3690644511       14.4454370258
  H        -2.0671254449       13.4668463575       14.8292179609
  C        -2.4180658748       12.9619261064       20.0431751414
  H        -3.5326136443       14.4928795321       19.1100793984
  H        -1.9161887769       14.8815039742       19.5239465122
  C        -2.8220497744       13.3144046890       21.4870558812
  H        -3.1359277732       12.1964510419       19.7944793365
  H        -1.4236903512       12.5238404900       19.9727111015
  C        -1.7928098434       12.7206255673       22.4393273470
  H        -3.7934088833       12.9349728927       21.7755076321
  H        -2.7770958151       14.3924757188       21.5928593579
  C        -0.5553837679       13.5863302286       22.5262842085
  H        -2.1494082530       12.6029260370       23.4382324567
  H        -1.4950616774       11.7038471288       22.1406728285
  C         0.7420917181       12.8818297024       23.1732657506
  H        -0.2814095774       13.6197345995       21.5135204032
  H        -0.8236453269       14.5604929855       22.9748083683
  C         1.1375521689       11.4856675099       22.4960992687
  C         0.3151878424       12.2203546245       24.4540740061
  C         1.9084891519       13.8054632031       23.3868863377
  C         1.0931729981       10.4632015088       23.3987194703
  C         1.6108093073       11.0770769854       21.2590352830
  C         0.5393056241       10.8781231866       24.6459531865
  C        -0.1559962601       12.8874969794       25.5571101943
  H         2.1063607426       14.2125019639       22.4366446764
  H         1.5847774502       14.6151184858       24.1091425834
  C         3.1727589380       13.0573009111       23.9330330290
  S         1.5318866315        8.8914393308       22.7322696946
  C         1.8838993704        9.6928011701       21.1916915227
  H         1.8655976363       11.8284326442       20.5473087958
  C         0.2257363279       10.3040224587       25.8354430283
  H        -0.2780689775       13.9369311086       25.4495064946
  C        -0.4290610428       12.3744552901       26.7742255166
  H         3.4702126570       12.1507009817       23.3381816056
  H         3.0107815459       12.7218677878       24.9835936661
  C         4.4091559394       13.9878994168       24.0094884492
  C         2.3683167975        8.9770131191       19.9846791026
  C        -0.2911713703       11.0049393145       26.9701333736
  H         0.3558726557        9.2492171917       25.8348310452
  C        -0.8703041615       12.8378754758       28.0312242641
  H         5.1805139371       13.5929263184       24.6696559788
  H         4.1319159444       14.8998409032       24.4518050217
  C         5.0565515037       14.1185332033       22.6296698617
  C         2.3693484484        7.5751802551       19.7226243802
  C         2.8229713168        9.8450812904       18.8545966784
  C        -0.7998103147       10.3776242994       28.2471216939
  C        -0.9794965887       11.7775024864       28.8669420486
  S        -1.2664803873       14.3965931001       28.6433508247
  H         5.7293865860       14.9723028294       22.6832983122
  H         4.3060526524       14.3610338853       21.8631340364
  C         6.0403826606       12.9712174049       22.2531194103
  N         2.1431853821        6.6614157861       20.7140020974
  C         2.6695921182        7.0442707362       18.4645384977
  C         3.1360867858        9.3518659303       17.5578202555
  H         3.0307344276       10.8341334083       19.0288884783
  C         0.3268905788        9.5788476168       28.9861182671
  C        -2.1471871309        9.5984839391       28.0072207987
  C        -1.4963042425       12.2250527932       30.1126490963
  C        -1.5786135235       13.5917969709       30.1771735196
  H         7.0397748422       13.3500307502       22.2954811879
  H         6.0172267003       12.1815377450       23.0656742682
  C         5.7273848000       12.4447705051       20.9168541164
  S         2.1148064924        5.2122703156       19.9674859117
  N         2.5325388598        5.6245939608       18.4410263652
  C         3.0772907754        7.8663474171       17.3435898494
  H         3.6973212584        9.9338831855       16.8676202524
  H         0.5993142695        8.7690378887       28.3523117120
  H        -0.1341723354        9.1447695244       29.8677421031
  C         1.5023089592       10.3663707331       29.3791861274
  H        -2.0104450111        8.8293719286       27.2035708492
  H        -2.3526904570        9.0202552455       28.9207360341
  C        -3.3155335690       10.4152887366       27.4932548946
  H        -1.6866699642       11.5668881215       30.9638564446
  C        -1.9426588454       14.2995175846       31.4112402232
  H         4.6671267145       12.1927768577       20.9342942563
  H         6.3716266082       11.5374598645       20.7829783899
  C         5.9732951312       13.4743829835       19.7290970591
  C         3.2296784212        7.1998931576       16.1331375219
  H         1.6837236546       11.1249172772       28.6300687715
  H         1.1957384631       11.0153167537       30.1770695018
  C         2.7360904293        9.5431670749       29.7198856949
  H        -3.0270954679       10.8335023030       26.5303953222
  H        -3.4410886781       11.1890015166       28.2184607625
  C        -4.6478878575        9.7165262452       27.3339066713
  C        -2.0143491859       15.7006948601       31.5782876986
  C        -2.1817344502       13.5275250461       32.6338077792
  H         4.9142233524       13.8223129725       19.5660912196
  H         6.4928852524       14.2788873622       20.1336741305
  C         6.7667296286       12.8845225331       18.5914173935
  H         3.1953109905        6.1533245681       16.1707767887
  C         3.4925901439        7.5675757922       14.8420589740
  H         2.9822327228        9.0123354801       28.8352894414
  H         2.3868782334        8.6770733715       30.3020542822
  C         3.9204357352       10.2469603876       30.3948703028
  H        -4.5452287133        8.8464824073       26.7473808741
  H        -5.0859452853        9.2507474929       28.2206683385
  C        -5.7338957768       10.5581164046       26.6567281465
  N        -1.7173364163       16.6728267844       30.6577690739
  C        -2.2809326663       16.3178067955       32.8219381445
  C        -2.4320050840       14.0820829963       33.8578886632
  H        -2.1096729882       12.4532462788       32.6250283307
  H         7.3173463203       13.6005263576       17.9421103610
  H         7.4885528034       12.1374776546       19.0254190710
  H         6.1733934832       12.3034270903       17.9383613156
  S         3.6248898326        9.1522919714       14.3506710520
  C         3.5153110318        6.5379796920       13.7389642908
  H         4.2037399737       11.1413930803       29.8945875739
  H         3.6133923889       10.5648125127       31.3680942600
  C         5.1063357525        9.3039783694       30.4757465578
  H        -5.2430187867       11.2913349799       26.0053535093
  H        -6.3250155093       11.0702446244       27.4243584185
  C        -6.6098237978        9.7674854576       25.6879799803
  S        -2.0402899407       18.1744583294       31.1517535983
  N        -2.4240560836       17.7379237699       32.7110017849
  C        -2.4960907340       15.5497001491       33.9545844908
  H        -2.5776827725       13.4687024713       34.7671825785
  C         4.0073955018        8.4927525008       12.7672262372
  N         3.9045172509        7.1569942056       12.6065824828
  O         3.3367898855        5.3136758943       13.8632433799
  H         5.9757098914        9.8798414310       30.4749628668
  H         5.1824056087        8.6520892801       29.5974291781
  C         5.0360601128        8.4138765260       31.8115761912
  H        -5.9703977381        9.3729685087       24.8623701815
  H        -6.9976226329        8.9449717086       26.2125643693
  C        -7.6440421284       10.6479746231       24.9801641361
  C        -2.6869419310       16.2859644548       35.1654738867
  S         4.6108345748        9.3757883405       11.3830424668
  C         3.8691949574        6.4516628472       11.3308937981
  H         5.5450859508        8.9882837783       32.5524132865
  H         3.9832227162        8.4232558525       32.1450661422
  C         5.6036000097        7.0063837366       31.5954945236
  H        -7.1399683235       11.1724331350       24.1621032773
  H        -8.0517959706       11.4531881089       25.6230064600
  C        -8.8238821701        9.9184002791       24.4344111303
  H        -2.3171716690       17.3230768070       35.0304521955
  C        -3.2495592679       15.9871711622       36.4342681749
  H         4.3444479983        7.0519282102       10.5369170484
  H         4.4805332067        5.5585800022       11.4198372015
  C         2.4249457290        6.1764294545       11.0044814828
  H         4.9382481470        6.5833443947       30.8616040901
  H         5.5095852852        6.5071493528       32.5990161763
  C         7.0572708594        6.9837026539       31.2062075104
  H        -9.2692902036       10.2695427757       23.5712957898
  H        -8.6021744808        8.8756826985       24.2658710909
  C        -9.9129806849        9.8000132373       25.4204795009
  S        -3.9247136944       14.5281783797       36.8477406235
  C        -3.2032240006       17.0147922052       37.5499896509
  H         2.2312779040        6.1452954008        9.9482388153
  H         2.1559054655        5.1855185444       11.4398299288
  H         1.8391381506        6.9282402198       11.4651646629
  H         7.8041707266        7.0661449248       31.9422826628
  H         7.0868932164        7.7266204683       30.4820447923
  H         7.2602216765        6.0242654987       30.7114975822
  H       -10.1809375871       10.7595617251       25.8356566741
  H        -9.7966151892        9.0417342697       26.1075272691
  H       -10.8500174573        9.4552440901       24.8707736885
  C        -4.2055659492       15.2790505445       38.4357326096
  N        -3.8008351029       16.5301129397       38.6222581762
  O        -2.6875699361       18.1246521972       37.4282879025
  S        -4.8218508588       14.4121576894       39.8678727751
  C        -3.7337461628       17.3596590510       39.8520062724
  H        -3.8464317303       18.3997148722       39.6249838468
  H        -4.5943138904       17.0762918399       40.4526476171
  C        -2.4920591196       17.0919377497       40.6826034894
  H        -1.5754433781       17.1085216045       40.1594450406
  H        -2.5223666541       17.7844584451       41.5066283367
  H        -2.4388076111       16.0715126159       41.1193529779
