352
i=
  H         2.3149555527        1.1801510137       13.5926661552
  C         3.2389594130        1.6440539007       13.0955975740
  H         3.8914973591        0.8064515748       12.8839821304
  C         2.8191965713        2.3058105848       11.8210133220
  C         3.9079238662        2.5110252470       14.1013948688
  C         3.8393515189        2.7475201793       10.7797878798
  H         2.2779525913        3.1636330414       12.1839389492
  H         1.9893078483        1.7076949401       11.3964185940
  H         3.0241367934        2.8852160237       14.6551680211
  H         4.5476439972        3.2816671601       13.5025050516
  H         4.5853207112        1.9312655274       14.7214152734
  C         4.6045743526        1.5692268199       10.2795989138
  H         3.3964055858        3.1646874959        9.9344165281
  H         4.5803957639        3.4080837704       11.2573034388
  C         5.3377375490        1.7800434223        8.8821622497
  H         3.9181781192        0.7322614617       10.1362346799
  H         5.3396713753        1.1406126855       11.0159037505
  C         6.5314476324        2.6982571384        8.9137477227
  H         4.6232213381        2.2666493997        8.2276835615
  H         5.7015574389        0.7871015776        8.4675895883
  C         7.7800689688        1.8893885970        9.3272703893
  H         6.6860452797        3.0545425310        7.9323569092
  H         6.2871982720        3.4477625208        9.6339087654
  C         9.0988651232        2.6997793381        9.2968675422
  H         7.9562947069        1.1399919733        8.6028765736
  H         7.5727473858        1.4741165099       10.3068554082
  C         8.8273697761        4.0437860168        9.9875673054
  C         9.5778240198        3.3234959961        8.0049170132
  C        10.0872293219        1.9230778424       10.1610624555
  C         9.1238674616        5.1365429840        9.1531564219
  C         8.3524499675        4.4336436979       11.2667970238
  C         9.7293498877        4.6716169299        7.9379698055
  C         9.9690127140        2.6847432107        6.8559441172
  H         9.7645930961        1.9366853748       11.2059068448
  H        10.0881420291        0.8957970934        9.8247191110
  C        11.4937387077        2.5556932686       10.0616794056
  S         8.5904737474        6.6097016572        9.9362163587
  C         8.1233340766        5.7529691219       11.4083007307
  H         8.2415857110        3.6392750523       11.9419485338
  C        10.1164639326        5.2694990559        6.7803157338
  H         9.8538125020        1.6355222559        6.7818450130
  C        10.2841345111        3.2588893603        5.6659065072
  H        11.4316116502        3.5613303259       10.3678610541
  H        11.9052243727        2.4908096855        9.0203758328
  C        12.4609016656        1.8330378860       11.0069910307
  C         7.7095394244        6.4679345503       12.6909708877
  C        10.3986082148        4.6137134444        5.5394137913
  H        10.0411952262        6.3187849085        6.6654742541
  C        10.6966363021        2.7942985120        4.3881359145
  H        13.5273648452        2.1010677844       10.7107943666
  H        12.3262598997        0.7842929138       10.7523973153
  C        12.2081721889        2.1705936354       12.4625457622
  C         7.7362648165        7.8324562444       13.0189713129
  C         7.5523863033        5.5651601257       13.8951870151
  C        10.8325983767        5.2857094498        4.2962707148
  C        11.1171340142        3.8994721094        3.6351076841
  S        10.9183063787        1.3253042354        3.5793473494
  H        12.0679682514        3.2703530834       12.4993487951
  H        11.2505578296        1.7336981463       12.7716391807
  C        13.4267130995        1.8054496494       13.3923735000
  N         7.8973413069        8.8565811145       12.0487687477
  C         7.5286929562        8.3305959076       14.2744954362
  C         7.3387011038        6.0347394207       15.1522943495
  H         7.4738564952        4.5457218069       13.7720555468
  C        12.1566883073        6.1575426174        4.4007158225
  C         9.7383267193        6.1468757372        3.6518273076
  C        11.6722964652        3.5153554225        2.3949782366
  C        11.5595173625        2.1740230211        2.1976079833
  H        14.3394719977        1.9235213006       12.8802962816
  H        13.3049922947        0.7646328460       13.6176588000
  C        13.5251944571        2.3442840177       14.7459294241
  S         8.0650872269       10.2391754113       12.8253332974
  N         7.5840266645        9.7224836229       14.3074527925
  C         7.3475704097        7.5209069629       15.4050022838
  H         7.2963689687        5.4354559142       16.0734199018
  H        12.0328430044        6.8321002546        5.3030017249
  H        12.4041565532        6.8938630743        3.6086549338
  C        13.4409402916        5.3320565643        4.5313202810
  H         9.3962223624        6.9917191794        4.3962614962
  H        10.2260918735        6.7221363075        2.8537719285
  C         8.5487955014        5.4073812976        3.1156837873
  H        12.0285417515        4.2133265058        1.6963655144
  C        11.9184789812        1.4179481023        0.9475550740
  H        14.3765524476        2.8961757858       14.9200101241
  H        12.6801401767        2.9858887708       14.9172944652
  C        13.5254137570        1.1366606123       15.8053941234
  C         7.1885517716        8.0515204684       16.7056479648
  H        13.2073506261        4.4042982358        5.1511263910
  H        13.7273338605        4.8856747305        3.6352731215
  C        14.4989302453        6.2828564053        4.9665045577
  H         8.1859598563        4.8148654056        3.9998946949
  H         8.8749425107        4.7763329685        2.3199570827
  C         7.3803765448        6.3293371412        2.7535276699
  C        11.8881515829       -0.0337935150        0.8046274338
  C        12.1520122100        2.2331411808       -0.2891082285
  H        14.5251676547        0.6620783848       15.7161067937
  H        12.6772030983        0.4125869222       15.6288784649
  C        13.3060369141        1.8242754684       17.1311701696
  H         7.4450177690        9.0572546745       16.8285761383
  C         6.8461298249        7.5711430443       17.9477388238
  H        14.2558211709        6.8571947224        5.8983487781
  H        14.5129614554        6.9496311534        4.0518817255
  C        15.7423575743        5.4548275055        5.1728207203
  H         7.1381281322        6.9324028336        3.6360140221
  H         7.6839691021        7.0095684762        1.9479391050
  C         6.1975817803        5.4758506887        2.4112602386
  N        11.5231006350       -0.9461429768        1.8265360960
  C        12.1770417229       -0.6707561165       -0.3909792251
  C        12.3638446423        1.4978797406       -1.4465758069
  H        12.1319189314        3.2702144986       -0.2952697604
  H        12.2803918059        1.7834881729       17.5676968507
  H        13.5640791362        2.8941500484       17.0593372245
  H        14.0010915961        1.4098861323       17.9223997074
  S         6.2739993916        6.0455886464       18.3887086397
  C         6.7094571201        8.6268544781       19.0308326378
  H        15.4558816582        4.4562369238        5.4829743396
  H        16.3531689198        5.3934820120        4.3154645084
  C        16.6493454362        6.0602115957        6.3026105503
  H         5.7457764745        5.0818931507        3.3334873387
  H         6.5060664423        4.5657939181        1.9275676874
  C         5.0233938005        6.0735374126        1.5942935394
  S        11.8668826124       -2.4542802294        1.1870149943
  N        12.3099273268       -2.0628514777       -0.2686553959
  C        12.5905843320        0.0653992880       -1.5333319654
  H        12.5650362465        2.1561218507       -2.3412847680
  C         6.1981971893        6.6854180633       20.0290037797
  N         6.2575226695        8.0343438492       20.1185274796
  O         6.9059223381        9.8466304052       18.8724484788
  H        17.2556369181        6.7833806462        5.7561079865
  H        16.0756905156        6.5412292923        7.1225753096
  C        17.5534456904        4.9634642466        6.7284457563
  H         5.4202465587        6.3018058879        0.6324878254
  H         4.2856745995        5.2808829667        1.4429547001
  C         4.4215126996        7.2640330700        2.2906914669
  C        13.0340837141       -0.7183735797       -2.6494697741
  S         5.6469326822        5.8474761253       21.3554628823
  C         6.0973247093        8.8242729033       21.2903922652
  H        17.0639408863        4.2868107457        7.4042294854
  H        17.9323060850        4.1878640470        6.0782633565
  C        18.8001198478        5.6511441318        7.4385778241
  H         4.8161919179        7.2981528410        3.2836569281
  H         3.3924268760        7.1128605905        2.3761996391
  C         4.5478500927        8.5297303849        1.4879546616
  H        12.7330959478       -1.7029332977       -2.5788499496
  C        13.2833625460       -0.3706054063       -3.9191333775
  H         5.2625143597        8.4922734479       21.9609413863
  H         5.7646347706        9.8619853801       21.1476455252
  C         7.4609538980        8.9467113616       21.9859439534
  H        18.8160673903        5.2553853259        8.4682688745
  H        18.7589215741        6.7009595663        7.4198889825
  C        20.0995674479        5.3959921528        6.6743938148
  H         5.6204654031        8.6547795398        1.3651355493
  H         4.0322172451        8.4191585794        0.5012008068
  C         4.0304868326        9.7209655761        2.2050717557
  S        13.5454441926        1.2341410232       -4.4949706089
  C        13.4232562350       -1.3805674709       -4.9866542924
  H         8.3119039807        8.9103672221       21.2922625088
  H         7.6850242781        8.1863610028       22.7382035620
  H         7.4293670543        9.9462991254       22.4873226729
  H        20.5327884106        4.4006224698        6.9299355124
  H        19.9265714441        5.5025398566        5.6053378777
  H        20.8637396400        6.1677194200        6.8797874343
  H         3.3446260212        9.4210716804        3.0457162903
  H         4.7682466411       10.3937294274        2.5754216289
  H         3.5401982532       10.4306623362        1.5556655902
  C        13.9017433629        0.4913350454       -6.0813182174
  N        13.8545862148       -0.8488388553       -6.1295332641
  O        13.2392577630       -2.5325211451       -4.8371094862
  S        14.4384319224        1.4039395776       -7.5673862182
  C        14.0728678834       -1.6264985358       -7.3333931028
  H        14.3820676160       -2.6566687812       -7.1224178821
  H        14.8694198542       -1.1694295929       -7.8554831781
  C        12.7517725613       -1.6885321735       -8.1822932853
  H        12.0247551461       -0.9178106471       -7.8362948332
  H        12.2763785828       -2.6787161876       -8.0887953701
  H        12.8822401888       -1.3691086914       -9.2556132454
  H        -3.4262442952       12.9266595807       16.2278299986
  C        -2.7247734104       13.5442525366       16.7290466125
  H        -1.9947597303       12.8252323427       17.1618594012
  C        -3.1360103134       14.4338988543       17.9385237224
  C        -1.9179669340       14.3678297804       15.7023988697
  C        -3.2627773505       13.6783864757       19.2881736254
  H        -2.6329642459       15.3910171238       17.9351110112
  H        -4.1868867959       14.7198237728       17.8812185683
  H        -0.9087680453       14.1265676132       15.9917222079
  H        -2.1024417402       14.1320852061       14.6160396801
  H        -2.0704870123       15.4034447407       15.8583456567
  C        -1.9240731939       13.3156612464       20.0151261059
  H        -3.7892639786       12.7342767580       19.2873704568
  H        -3.7753037076       14.3138247979       19.9403275513
  C        -2.1841429552       13.2145598126       21.4811041934
  H        -1.7780362348       12.3112922125       19.5362309367
  H        -1.1656303767       14.0411812799       19.8720593446
  C        -1.0895082497       12.5745604381       22.3094043016
  H        -3.0369837108       12.5623305091       21.6812018386
  H        -2.3465814861       14.2311304398       21.8945251285
  C         0.1053408398       13.5089920464       22.5723711026
  H        -1.5040596067       12.0711423010       23.1931577627
  H        -0.7200731086       11.7354366188       21.7690380146
  C         1.2656880014       12.8517118390       23.2389649096
  H         0.3873064376       13.8568649619       21.5998188492
  H        -0.0425502889       14.4333508433       23.1992910276
  C         1.6164127431       11.5270993183       22.5180902130
  C         0.8737190876       12.1035300378       24.4749427072
  C         2.5568126432       13.6750537780       23.3619453414
  C         1.4941303021       10.3792403390       23.2539895430
  C         2.0376735797       11.2892663725       21.1885275738
  C         1.0456630903       10.7663328777       24.5228371509
  C         0.3877012693       12.7344245587       25.6259584820
  H         2.6942429446       13.8672691640       22.2888114827
  H         2.4825500501       14.5602228090       23.9409589393
  C         3.6949463632       12.8168427341       23.9674521994
  S         1.8924472808        8.9877674576       22.3880052042
  C         2.2314230957        9.9257154279       20.9692505575
  H         2.2545375030       12.1251670247       20.4906209117
  C         0.7598875377       10.0738433765       25.6603379608
  H         0.2104203268       13.7989765378       25.6202550396
  C         0.1708194138       12.0648606758       26.7943734406
  H         3.8901679268       11.9896851827       23.4478127392
  H         3.4221725738       12.4083200219       24.9151611526
  C         4.9965540696       13.5885577042       24.2454970473
  C         2.7428627561        9.2923668529       19.6859588181
  C         0.3693064475       10.6849266794       26.8533661877
  H         1.0601504024        9.0260104048       25.7948175491
  C        -0.2544393271       12.4182810789       28.0422872191
  H         5.7026633203       13.0566337545       24.8111469150
  H         4.7606952435       14.2977199322       25.0434978469
  C         5.6717726252       14.2088010520       23.0179506827
  C         2.7719298412        7.9272665497       19.3677179429
  C         3.1024775651       10.1467302970       18.5244375320
  C        -0.0364782288        9.9885772842       28.1332185472
  C        -0.3528460220       11.3186688428       28.8259079586
  S        -0.6113474362       13.9353100348       28.8434139681
  H         6.3003014945       15.0128493224       23.2420909650
  H         4.9145167627       14.8382251751       22.4537647714
  C         6.4206428196       13.2492126269       22.0515124110
  N         2.2482575158        6.9268686838       20.1918678893
  C         3.1902778929        7.4168699808       18.1680006372
  C         3.5380259233        9.7307073928       17.3097073371
  H         3.1135009065       11.1779386643       18.6853143912
  C         1.0276906602        9.1286021673       28.7749382446
  C        -1.3138976880        9.0426807547       28.1083972592
  C        -0.8262246170       11.6548282233       30.0876006337
  C        -0.9386213564       12.9733981886       30.3099196539
  H         7.5033476338       13.3640439965       22.3541702336
  H         6.1146069399       12.2188409214       22.3378148019
  C         6.0062786624       13.6459338286       20.5792331496
  S         2.4944106530        5.5292784445       19.4521298254
  N         3.1483363649        6.0309732429       18.1055488632
  C         3.5073724294        8.2396369127       17.0129114913
  H         3.8892918046       10.4305647221       16.5745509394
  H         1.3254461552        8.2317943731       28.1903242439
  H         0.6337644951        8.6886320946       29.6437990358
  C         2.2030736523        9.9661533907       29.4249013451
  H        -1.2678619035        8.1854491207       27.5331140709
  H        -1.5607413957        8.5869377945       29.1371579770
  C        -2.6249854883        9.7363933702       27.8063847148
  H        -1.0909761939       10.8108122750       30.7169179133
  C        -1.3253021668       13.5594593645       31.6126057801
  H         6.2526650520       14.6583334472       20.3722669589
  H         4.9720450684       13.5091085945       20.5078563472
  C         6.6839766332       12.6727477110       19.6487448466
  C         3.7650310540        7.5386450471       15.8179630570
  H         2.6719107799       10.6017863253       28.6607700756
  H         1.7791008024       10.5484692312       30.1971293623
  C         3.3829325433        9.2309559581       30.1054779289
  H        -2.5881444789       10.3364877312       26.8360841576
  H        -2.8983112320       10.5222465468       28.5230920125
  C        -3.7298569090        8.6679160909       27.7086331020
  C        -1.4994117138       14.9247407409       31.8212577866
  C        -1.4165921936       12.7454875077       32.8351487224
  H         7.0056776791       11.9131169843       20.3780486409
  H         5.8381712111       12.2996328256       19.0431680800
  C         7.9826510927       13.1949910278       18.9873178911
  H         3.7313076972        6.4297549925       15.8278254548
  C         4.0635644429        7.9824683377       14.5674060743
  H         3.9582809882        8.6242229459       29.3891372434
  H         3.0239106062        8.5047854796       30.8460571970
  C         4.2987486941       10.1661942580       30.9146514918
  H        -3.6194876812        7.9680778027       26.9010994791
  H        -3.7601507207        8.1686498332       28.6724181186
  C        -5.0801436573        9.2392989181       27.4795280700
  N        -1.4349815160       15.9442160086       30.8926842881
  C        -1.7634712377       15.4964081469       33.0607372022
  C        -1.6330637409       13.3163847832       34.0996882269
  H        -1.1940613238       11.7300035923       32.7669895064
  H         8.6220522573       13.5223104143       19.7851633489
  H         8.3823639221       12.5172561899       18.2570945953
  H         7.7346172940       14.1490562212       18.4583397564
  S         4.1800782911        9.6213218403       14.0728969598
  C         4.2533776633        6.9678273216       13.5224634973
  H         4.1499433079       11.1755407097       30.5045313241
  H         4.0749566221       10.1291905760       31.9921361443
  C         5.7612050621        9.8331406432       30.7742571228
  H        -5.3788689133        9.8886112215       28.2932638735
  H        -5.6806493635        8.3989813678       27.6876440163
  C        -5.4474403703        9.8464362985       26.0849400744
  S        -1.6424953120       17.3930919463       31.5249159412
  N        -1.8629223723       16.8818407262       33.0539834712
  C        -1.9722182618       14.7616208697       34.2105022754
  H        -1.6308222117       12.8233824177       35.0554378450
  C         4.2303233797        8.9781761849       12.4529179311
  N         4.3094501460        7.6465683050       12.3731502717
  O         4.1896985144        5.6910223580       13.6861335486
  H         6.3509530474       10.6033377730       31.2333322631
  H         6.0880202833        9.9917764844       29.7668648646
  C         6.1105529864        8.4267596166       31.2297268629
  H        -4.7495383673       10.5834614297       25.8004034146
  H        -5.3342227249        9.0783130376       25.2993584040
  C        -6.9080659442       10.4988495686       26.0433756600
  C        -2.2433753295       15.4544967393       35.4765014672
  S         4.6644577083        9.8929873224       11.0003673576
  C         4.1342035549        6.8937405016       11.1568537307
  H         6.7105901021        8.4599584987       32.1724592627
  H         5.2316528566        7.8282350420       31.5743169592
  C         6.8405902592        7.6396636177       30.1045730466
  H        -7.0297848132       10.9439182912       25.0654582245
  H        -7.0584216548       11.2877120795       26.8063502551
  C        -8.0211895631        9.4529526680       26.0628921039
  H        -1.8400646311       16.4268348960       35.4756038200
  C        -2.8363417973       15.1035202188       36.6583432253
  H         4.5849435916        7.3707000813       10.3056638480
  H         4.5143842145        5.8907329359       11.2193969540
  C         2.5974214827        6.9488690593       10.8331387793
  H         7.6169205158        8.3088460027       29.7233163680
  H         6.1299485484        7.5569938879       29.2629589251
  C         7.2764534506        6.2374757276       30.5696361113
  H        -7.8006408645        8.5893517903       25.4602304812
  H        -8.0131960970        8.9793577727       27.0067703192
  C        -9.3082628612       10.1951273319       25.6532161207
  S        -3.5458767723       13.5911653638       37.0305225287
  C        -2.9141499835       16.1026423263       37.7637521350
  H         2.4128933342        7.7215599002       10.0375775687
  H         2.2923698370        5.9820907414       10.5275804056
  H         1.9220440670        7.1494608342       11.6174967915
  H         6.3494047286        5.6669314939       30.8094778191
  H         7.8382291207        6.3589151027       31.4954495379
  H         7.8388369018        5.6961795792       29.8006407010
  H        -9.3413405667       11.1231112798       26.2165635136
  H       -10.1790513707        9.5603618207       25.8226084720
  H        -9.1620983100       10.4646303557       24.6001945738
  C        -3.9267580882       14.2458974687       38.5805201310
  N        -3.6124659347       15.5384778064       38.7905666859
  O        -2.4842577318       17.2352096306       37.6643127161
  S        -4.9603168938       13.4222301877       39.7500168972
  C        -3.8889204051       16.2745951429       40.0738908389
  H        -4.0829578113       17.3566517163       39.8767119400
  H        -4.8203035402       15.9079888424       40.6329535399
  C        -2.5693450649       16.3625052679       40.9258811433
  H        -1.9875069380       15.4968686339       40.5931529098
  H        -2.1127145692       17.3139467578       40.7187061922
  H        -2.7859460675       16.3473055294       42.0492533686
