352
i=
  H         2.8147401210        1.1808781835       13.1864240372
  C         3.6488201494        1.6970126335       12.5974432420
  H         4.4460231761        0.9676734183       12.3912118924
  C         3.0056124820        2.2048861156       11.3133987478
  C         4.1736937577        2.7792324810       13.5196604249
  C         4.1132956299        2.6013338280       10.3330945520
  H         2.3602078706        3.0412531248       11.4596514605
  H         2.3891238059        1.4168170644       10.9462287346
  H         4.6929577062        2.4265304302       14.4029311014
  H         3.3331153388        3.4165205369       13.8471103992
  H         4.9346941906        3.4282641810       13.0893118703
  C         4.7921458376        1.3707082119        9.7034776647
  H         3.7803276937        3.4321397063        9.6868723814
  H         4.8493526487        3.1566712992       10.9114076956
  C         5.5986306584        1.6621147100        8.3879180683
  H         3.9624300701        0.7297582729        9.3917336401
  H         5.4663001682        0.7109759439       10.3183214459
  C         6.7569275969        2.6700239788        8.4777607563
  H         4.9696126163        1.9379886789        7.5551636856
  H         6.0803338047        0.7940452615        8.0464013328
  C         8.0477573073        1.9905807386        9.1133791556
  H         6.9378809537        3.0628210838        7.4824043216
  H         6.4347264591        3.5390208601        9.0519052670
  C         9.3424152554        2.8642769495        9.3794879025
  H         8.3736994879        1.0576324849        8.6629973232
  H         7.7821099191        1.6931577923       10.1286024878
  C         8.9896707402        4.1777702528       10.0467215501
  C         9.7618939414        3.5259538410        8.0941928509
  C        10.4912778949        2.1834768370       10.0527193748
  C         9.2029979977        5.2648965442        9.2156358125
  C         8.4532575701        4.5666493402       11.2904531329
  C         9.6294620443        4.8762703853        7.9622567934
  C        10.2011608399        2.9925736839        6.9257653038
  H        10.0670826252        1.7216014055       10.8358274296
  H        10.8740227353        1.3871550117        9.4525576393
  C        11.5974524802        3.0704173361       10.5137649643
  S         8.8537262263        6.7315002731       10.0416051385
  C         8.2956398091        5.8632369502       11.4069334590
  H         8.3522222219        3.7342835426       12.0015142362
  C        10.0491314462        5.5476696039        6.7986659650
  H        10.3196833831        1.9558571773        6.9434756494
  C        10.3965403425        3.6099079438        5.7441291621
  H        11.2208590088        3.8880707778       11.2110688215
  H        12.1182887196        3.4582401562        9.6556607375
  C        12.7959152948        2.4855776152       11.1523186938
  C         7.8929475133        6.5236146932       12.7088835222
  C        10.3468538091        4.9273684599        5.6142671491
  H        10.0935332108        6.6678569355        6.7326807185
  C        10.7883096509        3.1828185560        4.4777793012
  H        13.5561930135        3.1718584399       11.2649475893
  H        13.2384811603        1.6508982810       10.6458608504
  C        12.5449460874        1.8633494310       12.4930431760
  C         7.9082339466        7.8952148082       12.9630458821
  C         7.4365882843        5.6705247239       13.8358153122
  C        10.7436440589        5.5798850298        4.3611112694
  C        10.9230759173        4.2782060212        3.6217154077
  S        11.0978503998        1.6979461912        3.7345818735
  H        11.7412604958        1.1384241529       12.3803299200
  H        13.3918593105        1.2199916669       12.7127880732
  C        12.1633225263        2.8323921973       13.6174813492
  N         8.3254807966        8.9061710823       12.0450290044
  C         7.5344700426        8.4649391607       14.1667808795
  C         7.0109368227        6.1860511137       15.0614129559
  H         7.4130000190        4.6267687324       13.6072034376
  C        12.1295593386        6.3312004275        4.3319443593
  C         9.6720790655        6.3764755743        3.6946499748
  C        11.2387290489        3.9086555412        2.3339710183
  C        11.3472955192        2.5591993803        2.2263791692
  H        11.2365961925        3.4550808635       13.3246763053
  H        12.9581346327        3.5506278992       13.9507329640
  C        12.0305366447        2.0821838518       14.9098709889
  S         8.3939998899       10.4234222579       12.8257697671
  N         7.7763569257        9.8329641117       14.2358657208
  C         7.0664126271        7.7021077602       15.2964589651
  H         6.7124820832        5.5153017801       15.8452928679
  H        12.0264652881        7.2720116225        4.8687088115
  H        12.3282511337        6.5944656222        3.2719587424
  C        13.2704642758        5.5525145227        4.8736362947
  H         9.2904929511        7.1851950456        4.2958432045
  H        10.0454440494        6.8406907707        2.8309659602
  C         8.3793818957        5.6271734687        3.2847935373
  H        11.2676340163        4.7057682020        1.6041052423
  C        11.6828263699        1.7882266980        0.9934262226
  H        11.0748606328        2.4345820298       15.3360580560
  H        11.8241468158        1.0083215202       14.6992180696
  C        13.2195518854        2.2751446630       15.8260669076
  C         6.7392590511        8.4373387058       16.4676420193
  H        12.9831390398        5.1110988025        5.8133666623
  H        13.6345249167        4.8236295503        4.1672117592
  C        14.4957139690        6.3724891870        5.1978973926
  H         7.5036291813        5.9751028793        3.8397189722
  H         8.4470537538        4.5691515630        3.5401997126
  C         8.0749751605        5.5486869445        1.7682160761
  C        11.9156590871        0.3478687132        0.8302497822
  C        12.1804551851        2.5478352398       -0.0792280327
  H        13.4492903390        3.3908793863       16.0621701071
  H        14.1526341833        1.8830218403       15.3943134692
  C        12.9928025868        1.6760995831       17.1957991075
  H         6.6522130250        9.4441776276       16.3386788023
  C         6.4884602278        8.0182916809       17.7731236266
  H        14.1899790298        7.0540851028        5.9686268542
  H        14.6659692212        7.0167129972        4.3566792851
  C        15.6636100154        5.6061559887        5.6218808983
  H         8.2871915176        6.5061674663        1.3329250612
  H         8.7979752518        4.8164347567        1.3883167990
  C         6.6151680099        5.2492439684        1.5382958178
  N        11.8061983024       -0.6605627419        1.7924920856
  C        12.1736384176       -0.2329835954       -0.4051840395
  C        12.6753698596        1.9913883603       -1.2730652565
  H        12.1976728457        3.6035378667        0.0294098817
  H        13.8620015943        1.8327464544       17.7566248464
  H        12.6691096365        0.6441540098       17.0894162279
  H        12.2869126481        2.4059361390       17.6290559809
  S         6.5329860520        6.4354815023       18.4211475896
  C         6.2290798950        9.0989888859       18.6979945810
  H        15.4656834600        4.8423532817        6.2756440239
  H        16.2651144230        5.1994551777        4.7427892100
  C        16.6121828806        6.6207410892        6.3639985573
  H         6.3797665141        4.3163990650        2.0754006206
  H         6.4155121533        5.0412224212        0.4198122461
  C         5.5632081743        6.2315616097        2.0474895607
  S        11.9690934324       -2.1542854996        1.1271054690
  N        12.2418492367       -1.6218893857       -0.3524001427
  C        12.6138818882        0.5053571233       -1.4988100041
  H        12.9806474226        2.6155474109       -2.0394396335
  C         6.0630735714        7.2426567747       19.8980078490
  N         6.0628216676        8.5634068401       19.9116869462
  O         6.4003813959       10.3034489555       18.4621790361
  H        16.9860425850        7.3292336958        5.6428509163
  H        16.0201631261        7.2004600219        6.9894539149
  C        17.7729202879        5.9473556089        7.1742044437
  H         4.5507645030        5.9952554858        1.8048862449
  H         5.5578153117        6.3395980035        3.1368333153
  C         5.7856679248        7.6231076889        1.3843864385
  C        12.9143049647       -0.1936813709       -2.7184263797
  S         5.9516358672        6.4178377771       21.4049182379
  C         5.9734691816        9.3491927727       21.1921038742
  H        17.6777711746        6.1994459202        8.1839048512
  H        17.4135044702        4.9511483840        7.2063921594
  C        19.1172375142        6.1210229884        6.4899031559
  H         6.3456901385        7.5063572905        0.4281461619
  H         6.2611858899        8.4012895281        2.0333875219
  C         4.3844120950        8.1668697912        1.0206176615
  H        12.7758583659       -1.2393185164       -2.6402901878
  C        13.2976173719        0.2682250719       -4.0021261153
  H         5.4029731578        8.8203024803       21.9589925905
  H         5.2806087741       10.1796478131       20.9028797721
  C         7.3865720943        9.5994511101       21.7049811531
  H        19.8917714492        6.1045623178        7.3473629910
  H        19.3088060556        7.0032086487        5.9058673352
  C        19.4893127790        4.9631076680        5.5211841572
  H         3.9668493304        7.6255529269        0.1944119300
  H         3.5067019166        7.9195665305        1.7067913028
  C         4.2970609297        9.6846875032        0.8695033840
  S        13.7120946439        1.8877890561       -4.4002965336
  C        13.6046172644       -0.7256630657       -5.1326546784
  H         7.4872307965       10.3447633315       22.4157557052
  H         8.0656702281        9.7394398963       20.8798356104
  H         7.7593457880        8.7401757579       22.2759825270
  H        20.5131478255        5.1056106626        5.2670120976
  H        19.3653162373        3.9630377078        5.9732543373
  H        19.0170096344        5.1228249917        4.5695059818
  H         4.5190029491        9.9512902319       -0.1437200281
  H         3.2253114139        9.9913718777        1.1373710064
  H         4.8969645780       10.2015085984        1.6117424850
  C        14.1378321082        1.2781471391       -6.0060066865
  N        14.2264938218       -0.0636918142       -6.1115227043
  O        13.3600715951       -1.9374794094       -4.9925384198
  S        14.5931370116        2.2243492394       -7.3737486797
  C        14.5750038624       -0.7258121599       -7.2991350028
  H        14.8827010775       -1.6984930181       -6.9755332786
  H        15.5271531000       -0.4300593586       -7.8230028536
  C        13.4599520542       -0.7678628118       -8.3218063065
  H        12.6851150375       -0.0663014930       -8.0907459110
  H        13.0114933770       -1.7530524513       -8.2691174096
  H        13.7724026722       -0.5006926676       -9.3052406077
  H        -3.1766276122       14.5888225843       15.9181238323
  C        -2.8705055000       13.5641846654       16.0479011895
  H        -3.7631724180       13.0798262851       16.1989540836
  C        -2.0044593445       13.3073421049       17.2878446184
  C        -2.3740082796       12.8833691283       14.7682875078
  C        -2.6956239497       13.4780760802       18.6365149531
  H        -1.6884327510       12.2997767217       17.1744108740
  H        -1.2202656857       14.0285747708       17.3025047797
  H        -1.4824025810       13.4614519266       14.3342059862
  H        -2.1118631930       11.7611570138       14.8901855524
  H        -3.1222334613       12.9426945178       13.9565443995
  C        -1.6674455882       13.5021844760       19.7353602076
  H        -3.2398476902       12.5224395304       18.6752380319
  H        -3.4702369876       14.2715024317       18.5801849767
  C        -2.1419638668       13.3064863321       21.1560646736
  H        -0.8572568194       12.8437397872       19.5017425545
  H        -1.2704513566       14.5270720322       19.7890385325
  C        -1.1195822154       12.8769472888       22.1294545589
  H        -2.9571161726       12.5605808236       21.1215687111
  H        -2.5498181560       14.2120894113       21.5914534786
  C        -0.0155140174       13.9041660945       22.4554815613
  H        -1.6305115664       12.6950724962       23.0248086936
  H        -0.6878753817       11.9481261946       21.7761470760
  C         1.2328685604       13.2633587492       23.1768829159
  H         0.3496537352       14.2671563084       21.5291996609
  H        -0.4682463338       14.6869805074       23.0890199360
  C         1.6794329239       11.9349752614       22.5957455892
  C         0.8050042335       12.5608038247       24.4432844338
  C         2.4398121230       14.2548525602       23.4365741793
  C         1.4469676356       10.8707997812       23.4249597335
  C         2.2687759181       11.5953863361       21.3675250343
  C         0.8635896970       11.2412789603       24.5782407411
  C         0.3289824584       13.1806304394       25.6606237655
  H         2.7139102559       14.7607284969       22.4876400210
  H         2.0447365128       15.0275996983       24.1898582996
  C         3.6315565554       13.4962412319       24.0539196294
  S         1.9391261505        9.3443847146       22.7084590408
  C         2.4027763119       10.2113427884       21.2482478418
  H         2.5475339873       12.3804197057       20.6539981404
  C         0.3615160108       10.5663466403       25.6453618922
  H         0.1555393847       14.2471568019       25.5634065169
  C        -0.1242254661       12.5026014122       26.7148802000
  H         3.7619662877       12.5043833921       23.5491940178
  H         3.3450660127       13.1239875936       25.0531871003
  C         5.0599570804       14.0780431780       24.0516029138
  C         2.8102098949        9.4589581552       19.9698620901
  C        -0.1061546394       11.1431288350       26.8151971443
  H         0.3477664001        9.5154719125       25.6001886303
  C        -0.5386905686       12.8679850299       27.9745553047
  H         5.6538842232       13.2562177232       24.4916725790
  H         5.1321534355       14.7680565754       24.8902877943
  C         5.5269987504       14.7061465968       22.7422590294
  C         2.7648489887        8.0427602720       19.7305239292
  C         2.9372021294       10.3219491372       18.7179882333
  C        -0.5875392314       10.4100703795       28.1052661146
  C        -0.8197482143       11.7484535497       28.8076007151
  S        -0.7131125170       14.4149851339       28.7399769439
  H         5.7653001565       15.6996268752       22.8856144771
  H         4.7579240189       14.6818835645       21.9052704517
  C         6.8401860602       14.0685753589       22.1306715160
  N         2.5339293825        7.0367288436       20.6908843250
  C         3.0099963906        7.5511560450       18.4521653113
  C         3.1971815924        9.7704018972       17.4637699836
  H         2.8972093878       11.4062889791       18.8582480415
  C         0.4016355758        9.5778722284       28.9254909490
  C        -1.8663656385        9.6242547010       27.8242636918
  C        -1.2441154211       12.1926774202       30.0604051978
  C        -1.1222193968       13.5308115241       30.1810925213
  H         7.5671138392       14.8421925855       22.0459916819
  H         7.1931120828       13.3063037333       22.8730943861
  C         6.6215856109       13.4499007608       20.7117751601
  S         2.8460649727        5.5883740422       19.9416540534
  N         3.0380440406        6.1484250048       18.4638697764
  C         3.2850038930        8.3135974712       17.2837830041
  H         3.4684558961       10.4756523317       16.6706858828
  H         0.4197686295        8.6140980196       28.4718249138
  H         0.1010275461        9.4448282818       29.9520772284
  C         1.7957327134       10.1334489712       28.9020236454
  H        -1.7218924220        8.8972294370       27.0235134109
  H        -2.1610775013        9.0022927730       28.6657411278
  C        -3.0419837744       10.3882590945       27.3241934493
  H        -1.6401770715       11.4561346009       30.7075503687
  C        -1.3502134716       14.2229932727       31.4876623725
  H         5.8395828644       13.9394993732       20.1072610705
  H         6.2702304586       12.4104847465       20.8569693046
  C         7.8986647690       13.3849908252       19.8677454526
  C         3.4758147085        7.6960227413       16.0344924907
  H         2.2827599132        9.7979482468       27.9587534726
  H         1.7837097724       11.2138359374       28.9464762166
  C         2.7581448577        9.7025435596       30.0416003753
  H        -2.8888686952       10.8936013040       26.3800529832
  H        -3.2217444896       11.1336746097       28.1658568938
  C        -4.3174302959        9.6154389613       27.1469939511
  C        -1.3821277407       15.6168324988       31.6612733926
  C        -1.6045440028       13.3693995992       32.6874955906
  H         8.7109141875       14.1398379648       20.0946107091
  H         8.5174750761       12.4294317598       19.9093741441
  C         7.5169421475       13.6437461071       18.3760126229
  H         3.2872266463        6.6626739041       16.0530663079
  C         3.7691813519        8.1314103138       14.7693388907
  H         2.5723890353        8.6561748002       30.0998909505
  H         2.5080181881       10.0629155525       31.0109824604
  C         4.2438861643        9.9088626979       29.7598856483
  H        -4.1846488658        8.8150064423       26.3964885855
  H        -4.5431375696        9.0642125959       28.0695385423
  C        -5.4873096262       10.5795231462       26.8630769578
  N        -1.3395580990       16.5642634839       30.6637836232
  C        -1.6996969448       16.1582097075       32.8664749346
  C        -1.9381113198       14.0035054242       33.9377762082
  H        -1.6602342686       12.2839519569       32.6666119974
  H         6.5213619020       13.2995499951       18.1208833740
  H         7.5511025183       14.7540500736       18.2783070173
  H         8.3296865970       13.3976690403       17.6761337903
  S         4.1383552513        9.7565788586       14.2641894525
  C         3.9258291531        7.1418618122       13.7245820395
  H         4.3362622817       10.4934113511       28.8334601306
  H         4.8204035093       10.5252933325       30.5319917248
  C         5.0446274348        8.5973078089       29.5136976363
  H        -5.2815249281       11.3392228786       26.1144136924
  H        -5.8182037048       10.9962689031       27.8354064031
  C        -6.5621792446        9.7257500415       26.2472720848
  S        -1.4375167440       18.0531401317       31.3056851127
  N        -1.8999641114       17.4961722320       32.8196926440
  C        -1.9767131292       15.4717292371       34.0735644781
  H        -2.0784826503       13.3983834306       34.8255531234
  C         4.2878513075        9.1022745548       12.6732426382
  N         4.3143393802        7.7529596559       12.6273308814
  O         4.0265369191        5.9008777211       13.9022947388
  H         5.9675188289        8.9486376739       29.0328391710
  H         4.5390924140        7.9630451643       28.8270299230
  C         5.3003398110        7.7988183616       30.7722206171
  H        -6.3175629823        9.1337879378       25.2879835008
  H        -6.8502904006        8.9951096049       27.0144398379
  C        -7.7081955615       10.6962471025       25.8463373412
  C        -2.3490364128       16.1603340342       35.2382432747
  S         4.6636971528       10.0417939216       11.2499707594
  C         4.4793534263        6.9638302667       11.4487183979
  H         5.6191624988        8.4447718260       31.5740586521
  H         4.3528853712        7.2610744118       31.0118331204
  C         6.4403755450        6.8033720135       30.5061230390
  H        -7.5019457965       11.5302114130       25.1222187604
  H        -7.8290897155       11.2532897422       26.7729949059
  C        -8.8868869138        9.9411108655       25.4749179660
  H        -1.8041483938       17.1319375302       35.2743161187
  C        -2.9472014382       15.7922094047       36.3838246903
  H         5.0384095284        7.5518767805       10.7430759149
  H         4.9530740527        6.0285056046       11.6647725764
  C         3.1276846171        6.7710448803       10.7589820340
  H         7.3865974644        7.1024050712       30.9869601888
  H         6.6854264127        6.5526973096       29.4215759466
  C         6.2767745801        5.4305779171       31.2415215710
  H        -9.3522390248       10.2594178777       24.6018766113
  H        -8.5885190781        8.9615635260       25.1494093248
  C        -9.9456839525        9.8651549299       26.5821586611
  S        -3.7893822409       14.3328141180       36.6919942647
  C        -2.9845672474       16.8438131613       37.5359955044
  H         3.0336499969        7.3187738196        9.8453149904
  H         2.9560087352        5.7308141210       10.5455038515
  H         2.2936238667        7.1321566590       11.3300973326
  H         7.2879177138        4.8810088838       31.1696207150
  H         5.5819771217        4.7460834757       30.7042841051
  H         5.9755935518        5.4302705983       32.2819610385
  H       -10.0088681826       10.7292098824       27.2793031264
  H        -9.6913095277        8.9823099369       27.1389652052
  H       -10.9359994728        9.8149568090       26.2040679939
  C        -4.0672270398       14.9610586641       38.2845920986
  N        -3.7422430828       16.2380390118       38.5199718935
  O        -2.6744759315       18.0257699467       37.4623104509
  S        -4.7416928416       14.0202217423       39.5662743727
  C        -3.8950888436       16.8540903415       39.7693584533
  H        -3.9384066474       17.9208948715       39.6615899562
  H        -4.7853288043       16.4397075838       40.2967246045
  C        -2.7261348811       16.5869101061       40.7221947144
  H        -3.0440437441       16.7889968005       41.7551349001
  H        -2.4240056255       15.5116431952       40.6480725000
  H        -1.8975663469       17.2717362115       40.4814556813
