352
i=
  H         4.3591397283        1.3499438025       12.9504614246
  C         3.9756956879        2.3090473943       13.0558243867
  H         4.7933827891        3.0460163123       13.0340996535
  C         2.9269720875        2.5144904505       11.9945720055
  C         3.3658065922        2.5316175509       14.4330372564
  C         3.5863511106        2.8107992530       10.6764846682
  H         2.4330004887        3.3093544725       12.3764372616
  H         2.3207994971        1.6148626500       11.8517070255
  H         2.2677299023        2.4611883212       14.4006837883
  H         3.4170582702        3.6064603335       14.8387935379
  H         3.8178111905        1.8083402251       15.2814373797
  C         4.2247919370        1.5304836509       10.0332854327
  H         2.8709721738        3.2405497319        9.9889944802
  H         4.3407765478        3.5826540850       10.7183547005
  C         4.7654455653        1.7171361504        8.6071672818
  H         3.5048688937        0.6596486048       10.0125067881
  H         5.0862340624        1.2833028677       10.6484614290
  C         6.0606787487        2.4757557970        8.5079370100
  H         4.1018490481        2.4858804762        8.2737621838
  H         4.7762548312        0.8473756399        7.9810042400
  C         7.3027736772        1.6125921362        8.8016488996
  H         6.1577382450        3.0044810860        7.5531184794
  H         5.9460967711        3.1371097121        9.1919141675
  C         8.5484948273        2.4192894512        8.9942954739
  H         7.2878701246        0.8833159856        7.9985908212
  H         7.0113111376        1.1038248201        9.7183722811
  C         8.2747195708        3.7308877105        9.7594763915
  C         9.0473661732        3.1822437049        7.8376769074
  C         9.7013955313        1.6256018481        9.7762576833
  C         8.5294262800        4.8813820762        9.0185797122
  C         7.8690264549        4.0317289010       11.0516487992
  C         9.0956903926        4.5149607083        7.7932028415
  C         9.5554196577        2.6401297965        6.6636550469
  H         9.4087666563        1.4018803115       10.7347362592
  H         9.7999912950        0.5710258634        9.2709513833
  C        11.0886585401        2.3373718905        9.8055071260
  S         8.2773579014        6.3860537282        9.7755370176
  C         7.8924430866        5.4136021752       11.2313507176
  H         7.6138001873        3.2517694970       11.7706572786
  C         9.6786214220        5.1981615231        6.7668360232
  H         9.8336295490        1.6159823838        6.7311254414
  C        10.0515650457        3.2603082132        5.5706110368
  H        10.8752989975        3.3734886730       10.1151993243
  H        11.4882196200        2.4525009264        8.8061166128
  C        12.0399287437        1.8411494874       10.8891728093
  C         7.6568462668        6.2060186641       12.5226820246
  C        10.1666706843        4.6457972432        5.5756054388
  H         9.7652035248        6.2991089501        6.7206940586
  C        10.6589931663        2.9234352162        4.3575217460
  H        12.9484444144        2.3110813149       10.7679511498
  H        12.2399992297        0.7776553032       10.7493419492
  C        11.6007123511        2.2608740317       12.2884467472
  C         7.7412484271        7.6202562864       12.7601624855
  C         7.1456290661        5.4192295840       13.7675847269
  C        10.6230537574        5.3322720376        4.3328554062
  C        10.9235893214        4.0177772203        3.6221131631
  S        11.0137940665        1.4541241415        3.5601289293
  H        11.0001627758        3.0930480577       12.2443083727
  H        11.1242198260        1.3487316615       12.5107547304
  C        12.7382943420        2.3070248406       13.4318110778
  N         8.1077639435        8.5445745218       11.7364864978
  C         7.4467930331        8.1249411558       13.9626292354
  C         6.9577392307        5.9587125749       15.0226504753
  H         6.9623244876        4.4091625527       13.6597162804
  C        11.8660800025        6.1743110669        4.6776478000
  C         9.5963319606        6.0699611008        3.6621909803
  C        11.5471541576        3.6804381666        2.4059074390
  C        11.5838041564        2.3291234545        2.2110428376
  H        13.1852109799        3.3416937672       13.3395979676
  H        13.6106300499        1.7383310384       13.1648133352
  C        12.2347703650        1.9062433035       14.7973822243
  S         7.9424749893       10.0076759933       12.4642168120
  N         7.7302420897        9.5249862824       14.0261589199
  C         7.2390814756        7.3990111112       15.2094817688
  H         6.5628233028        5.4074466381       15.7408690526
  H        11.5197677566        6.9598180474        5.3528578271
  H        12.1595282698        6.6182481348        3.7463629782
  C        13.0532661260        5.3490501866        5.1360000381
  H         9.3021409207        6.6489923600        4.5411257213
  H         9.9747273054        6.7055878336        2.9038831852
  C         8.3758161294        5.2629234345        3.1802037606
  H        11.8734670414        4.4774865621        1.7697186951
  C        11.8212544132        1.6183039600        0.9060671317
  H        11.4346675577        2.6128937761       15.1324498755
  H        11.6862357353        0.9988475936       14.7130924737
  C        13.3632863536        1.8178775144       15.8375806906
  C         7.0892798480        8.1322413552       16.4943184436
  H        12.7109127339        4.6470348876        5.9174468757
  H        13.3764246717        4.5321146148        4.5148733249
  C        14.2705882643        6.1890160797        5.6113483482
  H         7.9525179213        4.6489480070        3.8886585443
  H         8.8623700673        4.7748334607        2.2638864132
  C         7.2557464888        6.1834259351        2.8335220091
  C        11.7292765498        0.2741831564        0.5819384915
  C        12.1730067348        2.3848514607       -0.3059011902
  H        14.2592804370        2.4218856688       15.5841216995
  H        13.6674851468        0.7527716933       15.9265969148
  C        12.8946065012        2.3146635627       17.2371864346
  H         7.3502810287        9.2092196421       16.4179878072
  C         6.7299964923        7.7772101248       17.7385275463
  H        13.9291106851        6.9004326882        6.4065401801
  H        14.6648562466        6.8257148791        4.8445624840
  C        15.2902024101        5.1708302116        6.1261720262
  H         6.9631380138        6.7595412765        3.8100066146
  H         7.6986320570        6.9435030470        2.1188972246
  C         6.0919592901        5.3981162029        2.1712296125
  N        11.4168316334       -0.7462435396        1.4893901393
  C        11.9275125070       -0.2292723012       -0.7043856481
  C        12.3366624742        1.8994089304       -1.6441333334
  H        12.4051399809        3.3220873546       -0.1029057484
  H        11.9482123228        1.7766562465       17.6018106523
  H        12.7340865799        3.4314993889       17.2035272096
  H        13.5670668734        2.2455046915       17.9943987015
  S         6.2728580364        6.2285767152       18.2978488524
  C         6.5500240566        8.7846240146       18.7929089421
  H        14.9352178545        4.8625310677        7.0679818576
  H        15.2801044697        4.2382785036        5.5491648676
  C        16.6281674118        5.8620076286        6.1623008450
  H         5.5683366729        5.1106615431        3.0430235249
  H         6.4733948608        4.4253618658        1.6043870802
  C         5.1706614312        6.1901779954        1.3174685097
  S        11.5334052120       -2.1579130118        0.8262000242
  N        11.9364997372       -1.6312986130       -0.6335124548
  C        12.1667822059        0.5255210138       -1.8677995849
  H        12.6984673335        2.4182142541       -2.4424963402
  C         6.1790733454        6.9691086865       19.9171645725
  N         6.2251298837        8.2842429058       19.9767015143
  O         6.6193840356        9.9726600989       18.4946101866
  H        16.9378687762        6.3162957529        5.2527882110
  H        16.5812169319        6.8298258139        6.7538537326
  C        17.6738044133        4.9448670839        6.8026856944
  H         5.8390222750        6.8360083575        0.6094423565
  H         4.5790214394        5.4431060023        0.7019097501
  C         4.2687684964        7.1227177165        2.1039463522
  C        12.4171768173       -0.0805800908       -3.1196029731
  S         5.8975518908        6.1832624657       21.4497211535
  C         6.3618058686        9.0975407385       21.2078142884
  H        17.2775930672        4.6926990473        7.7361754693
  H        17.7920389687        4.0835995299        6.1886350876
  C        18.9492600253        5.8057924304        6.8811480162
  H         4.6824699397        7.3298466543        3.1011700086
  H         3.2856838996        6.6702051746        2.1198116058
  C         3.8434744647        8.3476637337        1.2424287760
  H        12.1205648887       -1.0767346565       -3.1262997535
  C        13.0367940418        0.2197650515       -4.3322119979
  H         5.4369157930        8.8736057972       21.6963928892
  H         6.1364697112       10.1029247905       21.0822714681
  C         7.7581707302        9.0284306157       21.8315649190
  H        19.4937136739        5.3087273172        7.5714413689
  H        18.6634738653        6.7660418007        7.2720574416
  C        19.8640200146        5.7271565526        5.6854514609
  H         3.7547874522        8.0732922858        0.2337856519
  H         2.8808671098        8.6250951122        1.5783199338
  C         4.7878502518        9.5543677927        1.3952304590
  S        13.5771712163        1.7598953312       -4.8202685576
  C        13.2559990751       -0.8701283610       -5.2833542195
  H         8.4587255912        8.6723821729       21.0880108301
  H         7.8367627657        8.2950151962       22.6222210125
  H         7.9838203048       10.0547924401       21.9316354597
  H        19.4518775641        6.2901559257        4.7114005310
  H        20.6937863981        6.3599071682        6.0046058688
  H        20.3174178747        4.6984037151        5.5575102959
  H         4.8825198137        9.7567705645        2.4669599878
  H         5.8181579661        9.2198230945        1.0948327086
  H         4.4853237495       10.3919701373        0.8363557260
  C        14.1740261743        0.9292538797       -6.3182444531
  N        13.9751647933       -0.3748212128       -6.3238445903
  O        12.8867166633       -1.9882342123       -5.1625469516
  S        14.4157832417        1.7111360847       -7.8405536336
  C        14.1770926215       -1.1500887879       -7.4836316511
  H        14.5291620967       -2.1407586539       -7.1725777385
  H        15.0669436093       -0.8928844603       -8.2106818942
  C        12.8439660917       -1.4570773110       -8.2111496440
  H        12.3423299760       -2.3316099186       -7.8677326651
  H        13.1936511419       -1.4949460657       -9.2820383417
  H        12.1416197456       -0.6299739211       -7.9674493530
  H        -3.3878864024       15.9664498214       16.6909364529
  C        -3.2238502927       14.8877901109       16.5760665410
  H        -4.2480226708       14.5498599398       16.6677781179
  C        -2.3154016566       14.2685339063       17.6938255628
  C        -2.8727706360       14.4403839350       15.2208529862
  C        -2.6479564622       14.6966464825       19.0987958529
  H        -2.4249120724       13.1794663579       17.6338960738
  H        -1.2744922943       14.6275692587       17.5160097158
  H        -2.5417909033       13.3867437130       14.9821253883
  H        -3.7740204025       14.6375741146       14.5425667629
  H        -2.1241391501       15.1036153575       14.9222556686
  C        -2.0429766788       13.6259343968       20.0168640196
  H        -3.7001641749       14.8068329548       19.3014018373
  H        -2.0228076272       15.6245749449       19.2226086574
  C        -2.1801847214       13.7368245824       21.5444453894
  H        -2.3251516566       12.5869055763       19.7632433086
  H        -1.0077314652       13.4142185788       19.8679822048
  C        -1.0050670621       12.9707192707       22.2487495334
  H        -3.0797155334       13.2703900469       21.9457845263
  H        -2.3344596279       14.7770876386       21.7974294812
  C         0.1393215791       13.8849792302       22.6210747177
  H        -1.2281504361       12.3652241980       23.1474799573
  H        -0.6072807674       12.2476376633       21.4244659895
  C         1.3185183687       13.1441606102       23.3447715863
  H         0.4854300627       14.5384297904       21.7808916890
  H        -0.2841346391       14.6537129969       23.2161658331
  C         1.6482002929       11.8867331561       22.5480190407
  C         0.9377384314       12.3890709246       24.5915957231
  C         2.6347206566       13.9560915870       23.5423435554
  C         1.4248111540       10.7548902909       23.3443488210
  C         2.0450024524       11.4698930958       21.2984502034
  C         0.9289144488       11.0551137589       24.5859214431
  C         0.4462091456       12.8759534973       25.8236250890
  H         2.7945306796       14.1956330630       22.4667971320
  H         2.5532871386       14.7816451720       24.0942213707
  C         3.7855609296       13.1486326165       24.0665063827
  S         1.7885944987        9.2333048658       22.6044366715
  C         2.3108047251       10.1231039086       21.1684755931
  H         2.1520728964       12.2234577247       20.4841768481
  C         0.5350533987       10.3556152816       25.7219835841
  H         0.3580016858       13.8858509761       25.9405554465
  C        -0.0553358993       12.2536934675       26.8623032131
  H         3.8881464257       12.1735368696       23.7630234693
  H         3.4527366878       12.8792933002       25.1262664747
  C         5.0988956004       13.8801828811       24.2806797365
  C         2.8743919018        9.4270549382       19.9557587292
  C         0.0491283911       10.9062381534       26.8922978889
  H         0.4517748561        9.2492661543       25.7542743234
  C        -0.5397596404       12.6577774402       28.0300460444
  H         5.7073381858       13.4537968204       25.0163378550
  H         4.7660800546       14.9151598532       24.5026152370
  C         5.8667238452       14.1089905428       22.9948494297
  C         2.7251733041        8.0639292541       19.6313817412
  C         3.3948512756       10.2186446770       18.8963891387
  C        -0.4184216440       10.1866913332       28.1312961502
  C        -0.7070011122       11.5761731897       28.8434553021
  S        -0.8309237945       14.1670053864       28.7299290935
  H         6.6988266218       14.8069334229       23.2236643021
  H         5.2804994711       14.4362148376       22.2061720926
  C         6.6415280480       12.8793536873       22.5872961344
  N         2.2696032680        7.0629809219       20.5945516148
  C         3.0984213583        7.5395756924       18.4014788872
  C         3.6771902633        9.7054871158       17.6258786613
  H         3.5069779238       11.2463752900       18.9832345743
  C         0.7053071659        9.4582452890       28.8072786069
  C        -1.6682923939        9.3865149387       27.7592574760
  C        -0.9820462786       11.9729265433       30.1888768428
  C        -1.2663625067       13.3186493917       30.2271185961
  H         7.4105040803       12.6581694199       23.3937881107
  H         5.9405645070       12.0954021267       22.4285157570
  C         7.3807841312       13.1335340110       21.2348029637
  S         2.3056534008        5.6024117612       19.8378802553
  N         2.7835173578        6.1713356040       18.3505234260
  C         3.4755164582        8.2911853370       17.2888172448
  H         4.0321721452       10.4304649670       16.8209561704
  H         1.0157386646        8.5671592442       28.2547865949
  H         0.3179018687        8.8424749537       29.6492701191
  C         1.9327794268       10.3265280297       29.2014812976
  H        -1.4339231370        8.8448315930       26.8640372611
  H        -1.8101252970        8.5721193440       28.4165139945
  C        -2.8866703672       10.3114408534       27.6195805280
  H        -1.0055523969       11.2954557801       30.9186861763
  C        -1.6248648450       14.0645786978       31.4466753908
  H         8.0818669079       12.3205890503       21.1198275548
  H         7.9345643597       14.0489102656       21.1628649351
  C         6.4625969737       12.8615059461       19.9983205150
  C         3.7252537834        7.5858831587       16.1022309805
  H         2.0799978128       11.0671300163       28.4657682164
  H         1.4420943234       10.9146750213       30.0044526505
  C         3.0692161955        9.5207116669       29.8839197467
  H        -2.6167719195       11.0434386067       26.9873759194
  H        -3.0402783694       10.8433578758       28.5537294194
  C        -4.0922626108        9.5068004032       27.1371592112
  C        -1.7171102889       15.4911544391       31.6161587088
  C        -1.8284395958       13.2684745428       32.7093389283
  H         6.8964090806       11.9055822890       19.7141296976
  H         5.3883496543       12.6995870328       20.3265847807
  C         6.5771859434       13.9282983441       18.9708193765
  H         4.0291231322        6.4773544036       16.2578932866
  C         3.9462180041        8.0100922131       14.7955085198
  H         3.2496095283        8.7179736911       29.1991715381
  H         2.6354030405        9.1215276395       30.8358925615
  C         4.3529102574       10.2820002679       30.1138545979
  H        -3.7323297491        8.8394751339       26.2493266492
  H        -4.5137018577        9.0300974514       27.9491836760
  C        -5.2079093461       10.4543214913       26.5284747674
  N        -1.5161835306       16.4411726486       30.6901697120
  C        -2.0835997091       16.0356204022       32.8220954050
  C        -2.0199245710       13.9544366242       33.9376505560
  H        -1.6890347774       12.2248564018       32.6917343401
  H         6.0283483651       14.7570142749       19.1969352639
  H         7.6412178951       14.2997245004       18.9637900650
  H         6.3732932384       13.3349128698       17.9869891886
  S         4.1544741553        9.6110925060       14.1243161836
  C         3.9282679183        7.0722954362       13.7486369262
  H         4.3528503295       11.2025926945       29.5134348890
  H         4.1918653997       10.6979433400       31.1342214919
  C         5.7273846292        9.4719269782       30.0419250192
  H        -4.8480549030       11.1978963419       25.8121119297
  H        -5.6405852372       11.0509842129       27.3131792232
  C        -6.4002319462        9.6173353546       25.8397233817
  S        -1.6196649166       17.9515329316       31.3388840321
  N        -2.0073677824       17.4246257880       32.7698982681
  C        -2.3005692168       15.3815398824       34.0390713954
  H        -2.1840449531       13.3035209136       34.8278216846
  C         4.2107498188        8.9129015787       12.5679050047
  N         4.3382843831        7.5657039979       12.6271596921
  O         3.6418547915        5.8471430193       13.9250538654
  H         6.4286583827       10.1817049728       30.4293598014
  H         6.0396846576        9.4664080522       28.9649477868
  C         5.7007634914        8.2122377337       30.9748354175
  H        -6.0603492183        8.9021603040       24.9232130093
  H        -6.8294723130        8.9329277701       26.5723383978
  C        -7.4320299665       10.6012668092       25.3140036530
  C        -2.5678512351       16.1683455766       35.2709880370
  S         4.8481381058        9.7819775050       11.1975106071
  C         4.4127655952        6.7439017133       11.3942469284
  H         6.5424165984        8.5217479641       31.6018272437
  H         4.8397092155        8.2256089640       31.6548844431
  C         5.9434579251        6.8399152892       30.3477199930
  H        -7.1093865304       11.1156819843       24.4045281767
  H        -7.5896552350       11.4820969849       26.0087175240
  C        -8.7740526586        9.9460995908       25.0716408882
  H        -2.2683223773       17.1870066826       35.2283895799
  C        -3.0637408810       15.7905238168       36.5399608887
  H         5.1709002076        7.1202294031       10.6808202821
  H         4.8483900557        5.7106571873       11.5964652872
  C         3.1599307262        6.5588623064       10.6861763601
  H         6.9338520190        6.7692687756       29.7901028077
  H         5.0984705647        6.6296555010       29.7415648139
  C         6.0984817987        5.7551897483       31.3965699131
  H        -9.3649144106       10.5093067248       24.4355903866
  H        -8.6046193118        9.0061540479       24.6311375917
  C        -9.6731419937        9.9334991098       26.3545881602
  S        -3.7422932783       14.2315737538       37.0067608348
  C        -3.1301314126       16.7838314286       37.6005156043
  H         2.3019862936        6.8153137523       11.3389501354
  H         3.1938162364        7.2202305654        9.7860681889
  H         2.9546184456        5.5680332185       10.3362365204
  H         5.0954634060        5.5536689971       31.8033772632
  H         6.8242357972        6.0703817730       32.1412905921
  H         6.5989515323        4.9273765676       30.9042705979
  H       -10.6092193350        9.2868556961       26.1216187212
  H        -9.9107586473       10.9385721470       26.6862438087
  H        -9.2386927095        9.6081551369       27.2969404985
  C        -3.7961825194       14.9277267029       38.6286045598
  N        -3.6469938168       16.2553018174       38.7120697525
  O        -2.7562132065       17.9910936345       37.6120988699
  S        -4.4943828583       14.0700574266       39.9960599354
  C        -3.8696574243       17.0144596990       39.9440640789
  H        -4.1964761011       17.9821743656       39.4734734958
  H        -4.6183382452       16.6068673499       40.6116833833
  C        -2.5191743414       17.2103878003       40.6438852266
  H        -2.5059522717       18.1926122337       41.0854050563
  H        -2.5216727011       16.4421854548       41.4903760017
  H        -1.7750895241       17.2662591434       39.9451583793
