352
i=
  H         4.0883417409        1.1925838542       12.7002301204
  C         3.8097319326        2.2092443112       12.9041854929
  H         4.7509840512        2.7060715957       12.9836898868
  C         2.9700389622        2.6854933902       11.6752979023
  C         3.0472315915        2.3403739610       14.2353904576
  C         3.7970437161        2.8648125396       10.3839552706
  H         2.4366180716        3.6494353779       11.9324912213
  H         2.1746446002        1.9225849781       11.5509320513
  H         2.4811987833        3.2417504038       14.1601676792
  H         3.6141398666        2.6080395984       15.1204244164
  H         2.5274517945        1.3880799270       14.2682415826
  C         4.4901070132        1.6519964310       10.0842618363
  H         3.1784050942        3.0876183228        9.4811488003
  H         4.6305471870        3.6055710420       10.4893179291
  C         4.9686057950        1.5480788667        8.6505999464
  H         3.7457868559        0.8409240927       10.2578527355
  H         5.3436142645        1.5535961170       10.8231165193
  C         6.2920436646        2.2803378938        8.5212451305
  H         4.2578883285        1.8040626257        7.8564179847
  H         5.0376662680        0.4517141539        8.5948391719
  C         7.5928694783        1.5703706596        8.9974109911
  H         6.4211587092        2.3829483767        7.4606411201
  H         6.1412612838        3.2432744572        8.9840735005
  C         8.7797431436        2.6428331980        9.2635271140
  H         7.9355422864        0.7652791229        8.3344010175
  H         7.3669020258        1.0675077033        9.9932862454
  C         8.3544530484        3.9317726558        9.9828394319
  C         9.2065598401        3.3583397383        8.0712936322
  C         9.9689961699        1.9949964960       10.1153327374
  C         8.7352325292        5.0938738944        9.2644814217
  C         7.6965041851        4.3143104434       11.2026744279
  C         9.1617170240        4.7143292831        7.9915124840
  C         9.8310612492        2.7222651920        6.9636780600
  H         9.6765718292        1.4882585629       11.0064478825
  H        10.4602662403        1.1565015436        9.5599177732
  C        11.1640373731        2.9593530557       10.3963521879
  S         8.4385359114        6.5289893486       10.0903016794
  C         7.8199672709        5.6915100840       11.4132078357
  H         7.3323022307        3.5689677487       11.8960720647
  C         9.6552155431        5.3098418118        6.8615218904
  H         9.8963024182        1.6422770908        6.9622344825
  C        10.4036218250        3.3249806889        5.9073469582
  H        10.9105157548        3.8262715218       11.0196943737
  H        11.4852593287        3.2580655441        9.3530953296
  C        12.3464859406        2.2361292931       11.0380849771
  C         7.4878762086        6.3100621585       12.7652553325
  C        10.3005767935        4.6554489969        5.8188269252
  H         9.5152699564        6.3924151545        6.7901829106
  C        10.8866140865        2.8952166479        4.7087134217
  H        13.1953011770        2.8781529999       10.9151226278
  H        12.5957510354        1.3269679115       10.4246342888
  C        11.9867634756        1.9065483023       12.4663250743
  C         7.6158715600        7.7002969764       13.0617106647
  C         7.1519852417        5.4161406242       13.9269082316
  C        10.7737154845        5.3225137283        4.5971324395
  C        11.0448150878        3.9740424940        3.9139317053
  S        11.0066699508        1.4152482661        3.8972687006
  H        11.4386524767        2.7532730896       12.8700443944
  H        11.2125381636        1.1732504714       12.5359110060
  C        13.1919436990        1.6678544230       13.3654368825
  N         7.9379858785        8.6787289155       12.1776059097
  C         7.2667460486        8.2139988972       14.2846306950
  C         6.8571505419        5.8998134546       15.1726918852
  H         6.9155548664        4.4034615578       13.7930665813
  C        12.0240394711        6.1287445492        4.9810700196
  C         9.7121506815        6.1771543753        3.9140872258
  C        11.5048578613        3.6439977708        2.6357229299
  C        11.4341758132        2.2987121473        2.4575532134
  H        13.6715456032        2.5881266483       13.5261860217
  H        13.8689735364        1.0260537994       12.7870990414
  C        12.9400255131        1.0295494698       14.7265383446
  S         7.8919074048       10.1433058551       12.8697513136
  N         7.2440830964        9.6006301560       14.2380706418
  C         6.8991427294        7.4044969712       15.4095739780
  H         6.5378129384        5.1606466489       15.8966254220
  H        11.8934123804        6.8442692056        5.7896410584
  H        12.3877275369        6.6476877410        4.1467630627
  C        13.1789925840        5.2348017675        5.4211777707
  H         9.3431684376        6.9972279652        4.5728237500
  H        10.1696696836        6.6658763407        3.0423778040
  C         8.5190222775        5.3807779110        3.3684478019
  H        11.6233049085        4.4431735390        1.8885703723
  C        11.7190130716        1.6239002425        1.1475519417
  H        12.4119577123        0.1053195765       14.8081480054
  H        13.9799706777        0.7144273509       14.9735600842
  C        12.6001721671        2.0387277936       15.8584131673
  C         6.5318674868        8.1382525260       16.6210435629
  H        12.8872606261        4.6684738754        6.2923010001
  H        13.5730790227        4.4938226685        4.6690979323
  C        14.4619335592        6.0093603018        5.7713112769
  H         7.9007364167        4.9660784091        4.1951743935
  H         8.6889462938        4.5398613706        2.7729221612
  C         7.6866306021        6.2421337364        2.4072164437
  C        11.7965150044        0.2302765539        0.9322750044
  C        11.8406603824        2.3776984633       -0.1381116478
  H        11.6535946982        1.7804210089       16.3242063694
  H        12.2644653407        2.9072253424       15.3230828261
  C        13.7073197268        2.2877664169       16.9197804346
  H         6.7017086152        9.2047943160       16.6074109669
  C         6.2033992367        7.7260565015       17.8701796114
  H        14.1480718827        6.9698661125        6.1750827349
  H        14.9552013998        6.0913578436        4.8169914097
  C        15.4037838746        5.1674773497        6.6505379850
  H         8.3321302286        7.0600564741        2.0557771402
  H         7.4693601814        5.5728274902        1.5504005227
  C         6.4557065985        6.9598661943        3.0206101627
  N        11.4331196370       -0.7022340590        1.9213375034
  C        12.0093786851       -0.4137098244       -0.2723950663
  C        11.9993941045        1.7717480705       -1.3587010034
  H        11.7074149746        3.4662062358       -0.1608606280
  H        13.4277108156        3.1205037065       17.6932512071
  H        14.5811465383        2.6197448820       16.4881220949
  H        13.9195950734        1.4175981643       17.5363363179
  S         5.7606488689        6.1631553697       18.3698962077
  C         6.2452521913        8.8045948885       18.9917228227
  H        15.0950325203        5.1055864071        7.6803702760
  H        15.4001547539        4.1538532733        6.2893266210
  C        16.7559351581        5.8466531676        6.6377649643
  H         6.7624530099        7.4750776336        3.8905113754
  H         5.7593167811        6.1852574073        3.3045454244
  C         5.8021314648        7.9146635260        2.1508338417
  S        11.6614630428       -2.2117320445        1.3778923724
  N        12.0690717970       -1.8257505699       -0.1225819672
  C        12.1646398368        0.2763582490       -1.5001406861
  H        12.0103162122        2.3647424341       -2.3193760204
  C         5.7073929907        6.8660666281       19.9762379283
  N         5.8389913214        8.2224646574       20.1302355935
  O         6.5788120026        9.9236818995       18.8348725782
  H        17.0555093174        6.1837243228        5.6296843956
  H        16.5946631357        6.7487216322        7.1982438907
  C        17.8208853864        4.9278539338        7.1613699132
  H         6.5204756898        8.5322820839        1.5599018122
  H         5.2566760183        7.4316204272        1.3159734085
  C         4.8076721881        8.8049926719        2.8322575947
  C        12.4877017654       -0.3937675516       -2.7005076174
  S         4.9764468130        6.0893385457       21.2803077475
  C         5.9511094322        9.0113638868       21.3222969998
  H        17.4535142638        4.4614799826        8.0254301976
  H        18.0749986209        4.2240125085        6.3939249509
  C        19.0312253543        5.6739325324        7.6151286406
  H         5.1146779503        9.2780275690        3.7585599355
  H         3.8771720512        8.3085428684        3.1719599135
  C         4.5100898978       10.0594627224        1.9410120373
  H        12.4781293361       -1.4673851497       -2.5592111015
  C        13.1374927084       -0.0607720250       -3.8789132116
  H         5.3690658025        8.5536581714       22.0928114115
  H         5.5204239963        9.9905698872       21.1517615504
  C         7.3815805055        9.1659882230       21.6618936776
  H        19.4689393520        5.1279299852        8.4046079293
  H        18.7574924335        6.6647508392        7.9265503738
  C        20.0795402755        5.9037597926        6.5295971434
  H         3.8892360546       10.8279366573        2.4375192275
  H         5.4669659106       10.5237406967        1.6887616899
  C         3.6644259874        9.8257865311        0.6610637053
  S        13.4208562574        1.5016432226       -4.5227217266
  C        13.3993514138       -1.1741376615       -4.8865262199
  H         7.8967743020        8.2448039180       21.4920771559
  H         7.4066867371        9.3688872409       22.7545677139
  H         7.8048243000        9.9298270314       21.0733481919
  H        19.7528021121        6.7061812102        5.7945748229
  H        20.9855423651        6.2599461052        6.8500328724
  H        20.1731908680        4.9208803471        6.0990126573
  H         3.1060107917       10.7445113945        0.3541669549
  H         4.1057310624        9.3403628928       -0.1669264516
  H         2.8490024359        9.1545928636        0.9381483573
  C        14.1320244719        0.6989534321       -5.8904467556
  N        13.9807939585       -0.6127889325       -5.9338711326
  O        12.9473090424       -2.2945791755       -4.8158022543
  S        14.8099169178        1.5300340082       -7.2885586068
  C        14.3650000061       -1.3706905039       -7.1222166136
  H        14.6691372973       -2.4135012824       -6.8909758407
  H        15.2356011376       -1.1421390918       -7.6816238294
  C        13.1266853263       -1.5843040778       -8.0589076227
  H        12.9552132684       -2.6108446041       -8.2643023102
  H        13.3424218183       -1.1401436497       -9.0311867681
  H        12.1202322794       -1.2427601550       -7.8101674532
  H        -3.1676262237       14.8020837940       16.3062755042
  C        -2.9041800956       13.7489585332       16.2984809847
  H        -3.8124727154       13.2713678072       16.8173262246
  C        -1.7414117756       13.4218229494       17.2986590703
  C        -2.7646197216       13.0793147505       14.9797449879
  C        -2.0524952830       13.9421496474       18.7230048997
  H        -1.6921264161       12.3313689333       17.3631743117
  H        -0.7496700318       13.8040112131       16.9456091772
  H        -2.3208426238       12.0819916792       15.0564176860
  H        -3.6868727302       13.0369539629       14.5117505801
  H        -2.1447278405       13.6852630936       14.3133620105
  C        -1.9775903162       12.8423872946       19.7786132572
  H        -3.1162693822       14.4105911711       18.7850493960
  H        -1.3749023638       14.7696732209       18.9606135654
  C        -2.5085740110       13.3992453934       21.1581082407
  H        -2.5717247653       12.0001017000       19.4526403842
  H        -0.9933656021       12.4405893499       19.9292213101
  C        -1.6834145416       12.9478205103       22.3363674125
  H        -3.4683094952       12.9849751694       21.4036373187
  H        -2.4270601546       14.4887588667       21.1607584548
  C        -0.3121941690       13.6290495665       22.4531590401
  H        -2.2443459432       13.1004178280       23.2690257173
  H        -1.5573575827       11.8847108711       22.2647317475
  C         0.7751433685       12.9232441474       23.1889495727
  H         0.1438836931       13.6555650215       21.4669904792
  H        -0.5821150352       14.5377947883       22.9404352252
  C         1.1612145263       11.6031111850       22.5415516579
  C         0.3555580120       12.2372438003       24.4476466637
  C         1.9943001254       13.8377256811       23.3026048716
  C         1.0054988887       10.5463718684       23.3284707055
  C         1.6025600284       11.2508948703       21.2229819552
  C         0.4172707872       10.8769440638       24.5535771870
  C        -0.1536571604       12.8580197229       25.5736006595
  H         2.2537210224       14.1945970683       22.2562889534
  H         1.7194550540       14.7017678511       23.8627449467
  C         3.3059884080       13.2834414958       24.0006045726
  S         1.4423366853        9.0099985340       22.6203371884
  C         1.7506859061        9.8801339249       21.1910579794
  H         1.4690655912       11.9520973458       20.3799062327
  C         0.0517921513       10.2707065150       25.7057286367
  H        -0.2087767489       13.9360219862       25.5332617893
  C        -0.5084470313       12.2576177139       26.7157349798
  H         3.6068561375       12.3776181384       23.4307838457
  H         3.1772774667       13.0113195859       25.0438419854
  C         4.5189263749       14.2517426901       24.0691818139
  C         2.1452209768        9.1199098536       19.9687341789
  C        -0.4052804955       10.9076951841       26.8460139289
  H         0.0913723179        9.1585089983       25.7013179900
  C        -0.9719329788       12.6481550258       27.9227592801
  H         5.2415185996       14.0231552039       24.8015225703
  H         4.1552551985       15.2473438272       24.3414008109
  C         5.2229607071       14.3958242153       22.6918111140
  C         2.1537649296        7.7016319293       19.7333384910
  C         2.7342558249        9.9195921030       18.8831036915
  C        -0.8298973298       10.2061267483       28.0997017982
  C        -1.1135423759       11.5543595320       28.7778490646
  S        -1.2327239163       14.2032956392       28.6777114399
  H         5.8740134019       15.2831659221       22.7552855903
  H         4.5406861482       14.4722940996       21.8467217846
  C         6.1417968666       13.1926562987       22.3893423019
  N         1.6958064036        6.7301498771       20.6368502974
  C         2.4624381549        7.1786091659       18.4578870846
  C         3.2033902077        9.3603932191       17.7416629448
  H         2.8951295135       10.9802936363       19.0540859217
  C         0.2438033907        9.2938931557       28.8637562181
  C        -2.1863706288        9.4857770837       28.0503454617
  C        -1.4763690519       11.9992728174       30.0725833273
  C        -1.5325616691       13.3434443849       30.1882782620
  H         7.0867804362       13.5819050693       22.8173763343
  H         5.8783869583       12.4346359979       23.0581235415
  C         6.3659915569       12.8063403418       20.9507801718
  S         1.7328852556        5.2994591567       19.9470549093
  N         2.3824937965        5.7828017927       18.4761136868
  C         3.0111287409        7.9680866559       17.4362919345
  H         3.4783441535       10.1189009617       16.9269313393
  H         0.7034345801        8.5135481156       28.2094650899
  H        -0.2568756207        8.8199366917       29.7284471899
  C         1.4148584043       10.1241844891       29.4331989102
  H        -2.0850321971        8.5984463124       27.3585921401
  H        -2.3167786071        9.2144330504       29.1323587401
  C        -3.2709196340       10.3638163561       27.3914279642
  H        -1.7333877825       11.3597651871       30.8610092493
  C        -1.7911431985       14.1291762029       31.4084464334
  H         5.4314123646       12.8253019586       20.3553545829
  H         6.7529730243       11.8161289357       20.8229192819
  C         7.3526978495       13.7210013117       20.1475808324
  C         3.4103177757        7.3152049619       16.2014887921
  H         1.7871956434       10.8873835050       28.7557465656
  H         0.8567338307       10.5253241970       30.2817398560
  C         2.5777551295        9.1706737415       29.7618605604
  H        -2.9767404032       10.6524301048       26.3928842483
  H        -3.5495456516       11.2004427151       27.9968785478
  C        -4.6200678953        9.6355668154       27.2821344177
  C        -1.7993768818       15.5789468284       31.5422194884
  C        -1.9836480753       13.3691701692       32.6563449302
  H         7.0271183060       14.6972302387       20.2539463275
  H         8.4268616327       13.6815642159       20.5588815259
  C         7.5643313415       13.3273601490       18.7724008143
  H         3.4027453161        6.2391439014       16.2461103871
  C         3.6981699873        7.8277167619       14.9443721859
  H         3.0439350137        8.7163483230       28.8586570842
  H         2.2450154535        8.3567366499       30.3558888088
  C         3.5655425548        9.8455659868       30.7875364800
  H        -4.5605428788        8.7807351480       26.6153139093
  H        -4.8424189192        9.1323287256       28.1817751991
  C        -5.6908693564       10.5959457534       26.8551107792
  N        -1.2953849405       16.4280198753       30.5904997828
  C        -2.1196916739       16.1966366220       32.7646819254
  C        -2.2498669108       14.0367248654       33.8135573138
  H        -1.8463877279       12.2938527606       32.6006762887
  H         7.7939458118       14.2252108846       18.2094113141
  H         8.3388176484       12.6269499305       18.6589658671
  H         6.6620413935       12.8753483435       18.3360031768
  S         3.9685758193        9.4368995284       14.5122122896
  C         3.8615807007        6.8200970992       13.8595651240
  H         3.7959611249       10.8657229729       30.5127156226
  H         3.0048920438        9.8841746432       31.7168130894
  C         4.8361220190        8.9792761603       30.8300136461
  H        -5.2687690179       11.4590214313       26.2634962089
  H        -6.2362346849       11.1168856455       27.6666712125
  C        -6.7153766784        9.7024241329       26.0986212061
  S        -1.4236514363       17.9383187378       31.2156425161
  N        -2.0174373650       17.5809072577       32.7330855618
  C        -2.4075443041       15.4843217534       33.9336998990
  H        -2.4278904401       13.4874783882       34.6751932865
  C         4.2503988471        8.8235030815       12.9126005029
  N         4.1962598665        7.4761442942       12.7594736612
  O         3.7832675836        5.5717668920       13.9367433547
  H         5.6404269044        9.5415387824       31.3134898243
  H         5.1156265975        8.8902163800       29.8423653526
  C         4.8657917116        7.5013413199       31.4688753316
  H        -6.2732773888        9.1052906527       25.3370666271
  H        -7.0605135110        8.8722920546       26.7977034717
  C        -7.8155040939       10.5476093188       25.4308947997
  C        -2.5780799401       16.2184217283       35.1622173164
  S         4.7442400545        9.8960329778       11.6206548803
  C         4.1820349206        6.7251920409       11.5222083738
  H         5.5023387010        7.3516412297       32.3656307126
  H         3.8732890067        7.2189292039       31.7428079192
  C         5.2738089397        6.5281167177       30.2652690734
  H        -7.5055824725       10.8377529991       24.3817030243
  H        -7.8693164901       11.4594284459       26.0673111759
  C        -9.1492382611        9.8264772912       25.3539043092
  H        -2.2361442818       17.2292864102       35.1448798634
  C        -3.1576778455       15.7778968888       36.3019442258
  H         4.7303185677        7.2806698858       10.7436998249
  H         4.6682676677        5.7464575952       11.5858847559
  C         2.7211393429        6.5338933645       10.8801561083
  H         4.7876032990        6.8373376636       29.2966651928
  H         4.6567789993        5.6357054713       30.4473094647
  C         6.7812968553        6.1694788880       30.1749084242
  H        -9.8533309153       10.3465431678       24.6942525852
  H        -8.9102665886        8.8824421105       24.9349360994
  C        -9.8200857903        9.7631607619       26.7026804642
  S        -3.7802663222       14.1955482162       36.6906918140
  C        -3.2821894734       16.7603495451       37.4143282968
  H         2.1820016547        7.5079200531       10.7845790083
  H         2.7234079055        6.0636623939        9.9396654563
  H         2.0504511931        5.9197688561       11.4725650491
  H         7.0613767157        5.5850310886       31.0049425064
  H         7.2943571727        7.1165215812       30.1593941386
  H         6.9830059764        5.6164919746       29.3137652380
  H        -9.7989526174       10.7324007331       27.1528862887
  H        -9.4667570077        8.9382777448       27.3468901449
  H       -10.7659906217        9.4815114914       26.5882939479
  C        -3.9950898780       14.7584260626       38.3314010079
  N        -3.7606817802       16.1090600651       38.5025454294
  O        -2.9575374987       17.9118930792       37.3576131124
  S        -4.5743909605       13.9268230508       39.7400965830
  C        -3.8364605199       16.9546248131       39.6989518695
  H        -4.0845089376       17.9856170348       39.6637464471
  H        -4.6101995619       16.5758811613       40.2932586562
  C        -2.4543384705       16.8652947194       40.4454726045
  H        -1.5863066862       16.6283003343       39.8035386359
  H        -2.2687209338       17.8449932202       40.9501743291
  H        -2.4103225629       16.1761468607       41.2392436726
