352
i=
  H         4.0737542129        1.0783789634       12.8351024748
  C         3.9488529515        2.1512758484       12.9036181598
  H         4.9192324894        2.5677746249       12.8957895058
  C         3.0810984136        2.6459707085       11.6872891672
  C         3.5040945043        2.3517609265       14.2654085205
  C         3.8794674944        2.8262807161       10.4122367940
  H         2.7439390520        3.6402303105       11.9071270073
  H         2.2428440507        1.9388791284       11.5478736131
  H         3.0632474067        1.4703893302       14.6222062402
  H         2.9006625580        3.3090406811       14.2702665244
  H         4.4687207622        2.4205152145       14.7950123456
  C         4.4912484589        1.5535150713        9.8308026141
  H         3.1666613740        3.1960983577        9.7057805628
  H         4.5670813548        3.5933881917       10.5634144886
  C         5.3197342779        1.6624338338        8.4840762161
  H         3.6805181195        0.8666530666        9.5648178786
  H         5.0602584470        1.0905640690       10.6122834007
  C         6.5358518609        2.5033532638        8.6109232046
  H         4.6658729103        2.0455655004        7.6631309618
  H         5.5147294761        0.6508618827        8.0247524778
  C         7.8278221642        1.6667150449        8.9915206231
  H         6.6030802129        2.9614018534        7.6418680446
  H         6.3525664636        3.2856006089        9.3706825860
  C         9.1010676262        2.5403421337        9.2325145277
  H         8.0581098380        0.9289484861        8.2754463591
  H         7.6528419762        1.0804097231        9.8609957334
  C         8.6715227989        3.8187957464        9.9317315098
  C         9.5651156740        3.2086733886        8.0391820610
  C        10.1958282636        1.8178797623       10.0854055450
  C         9.0401644486        4.9042413868        9.2392644555
  C         8.0601858644        4.1403852130       11.1325391540
  C         9.5774604383        4.5661066595        7.9909006604
  C         9.9645204811        2.5576044914        6.8848168465
  H         9.8208231624        1.1855296141       10.8461695083
  H        10.5839400076        1.0959434004        9.4109921066
  C        11.2876150739        2.8295649424       10.5168562675
  S         8.6384207664        6.3735428588       10.0163735475
  C         8.0089005197        5.5125454503       11.3900426909
  H         7.6809498472        3.3546188694       11.7842107638
  C        10.0861033389        5.1718889330        6.8671239550
  H         9.7248671074        1.4979870896        6.7915019060
  C        10.4773076180        3.1941087378        5.7919557736
  H        10.8620655970        3.5331726062       11.1595190069
  H        11.6651856833        3.3120624559        9.6456776831
  C        12.4857832880        2.2328118408       11.2739544944
  C         7.5390941502        6.2317861681       12.6160114445
  C        10.5815964788        4.5355136677        5.7566626273
  H        10.1293466559        6.2582164599        6.8083717637
  C        10.9456139689        2.8438559330        4.5558213224
  H        13.2464954925        2.9803196928       11.1746231953
  H        12.7092048833        1.3133572181       10.7777619790
  C        12.1239076443        1.9868675058       12.7618876209
  C         7.6091227927        7.6467902916       12.9284725064
  C         7.0259503567        5.3736668865       13.7283136609
  C        10.9015967203        5.2878437762        4.4670510721
  C        11.1705569416        3.9544345448        3.7282938256
  S        11.1585681756        1.3718134286        3.7903067927
  H        11.9553948714        2.9914597173       13.3054487260
  H        11.2162520072        1.4144922681       12.7091859436
  C        13.2786748034        1.3407702105       13.4737260198
  N         7.9053511065        8.6296334443       11.9553295412
  C         7.4193042780        8.1627780457       14.1891112517
  C         6.8389278539        5.8813110423       14.9691266019
  H         6.9489897744        4.3238980424       13.5827063355
  C        12.2657516983        6.0437935977        4.5443011293
  C         9.8023829689        6.2420334267        3.9341228716
  C        11.6284780410        3.5577127977        2.4539057009
  C        11.5620849256        2.2098514933        2.3417491657
  H        14.0768707105        2.1129865821       13.5089042151
  H        13.6493001343        0.5379449530       12.8661605076
  C        12.9406194949        0.8118307100       14.8764680437
  S         8.1292719298       10.0055169072       12.7698621149
  N         7.5831006680        9.5865927523       14.1950046407
  C         7.0401734989        7.3425116029       15.2392459263
  H         6.4174775610        5.3146619180       15.7802995266
  H        12.1309305975        6.8825908152        5.2104192117
  H        12.4199205545        6.5074117273        3.5678124127
  C        13.5136390672        5.3255562547        4.9414081863
  H         9.5124389522        7.0769713752        4.5076547673
  H        10.1645297395        6.7330083494        3.0446491942
  C         8.5348424220        5.5422969039        3.4027099451
  H        11.8285423598        4.3056911370        1.7205019118
  C        11.8172161612        1.4398563644        1.1190198063
  H        12.0009019743        0.3195073321       14.7680300684
  H        13.7153219928        0.0713757696       15.0350652065
  C        13.0343638362        1.8337103274       15.9762561521
  C         6.8312178766        7.9658270777       16.5348749199
  H        13.3019381783        4.6787632873        5.8225978489
  H        13.8742792082        4.6964095014        4.1379614996
  C        14.5080857577        6.3694160130        5.3013834561
  H         8.0260832702        4.9124784173        4.1782527167
  H         8.7403962761        4.9806869472        2.5334660650
  C         7.5925604540        6.6059680673        2.9049392904
  C        11.8011917289        0.0164721769        0.9164827829
  C        12.1566985425        2.1617066569       -0.1202391282
  H        12.4420569706        2.7675613177       15.7443534085
  H        14.1230108774        2.1827449512       16.0183449788
  C        12.5043873772        1.2418523817       17.3025697747
  H         6.6763964686        9.0055293552       16.5504225288
  C         6.5379566767        7.5287104257       17.8084519107
  H        14.0923153104        6.7750826461        6.2041274617
  H        14.5428152148        7.1661164661        4.5700812240
  C        15.9073780190        5.8316248842        5.5125311860
  H         7.3555953310        7.2821196612        3.6944028446
  H         8.0979481959        7.2060838406        2.1279548667
  C         6.3357585135        5.9037324622        2.4953276392
  N        11.5811454777       -0.9198626595        1.9430241670
  C        12.1439610340       -0.6077602082       -0.2572321748
  C        12.4378928369        1.5817210175       -1.3128776381
  H        12.1394174429        3.2437761396       -0.1748134491
  H        11.5093083207        0.9625246578       17.1442420389
  H        12.3784660297        2.0454655594       18.0322588597
  H        12.9943613892        0.3750225695       17.6611081564
  S         6.3715225099        5.8696357538       18.3322453823
  C         6.4116594548        8.5427412631       18.9040325505
  H        16.2032329141        5.0786835274        4.7325506403
  H        16.6112123419        6.6527135660        5.3454040249
  C        16.0535382715        5.2058425860        6.9483377635
  H         5.9387541385        5.4300443217        3.4151567930
  H         6.4614092269        4.9908034207        1.9110562278
  C         5.3279287783        6.8306922228        1.8582217892
  S        11.7228080111       -2.4497161264        1.2772555827
  N        11.9666186427       -2.0015209010       -0.2524464198
  C        12.5427683495        0.0705779560       -1.4020095485
  H        12.7237474635        2.2755447829       -2.0550444226
  C         5.9805655404        6.5580840639       19.8599697463
  N         6.0456092216        7.9138480450       20.0044124415
  O         6.4216080290        9.7862519131       18.7566791240
  H        16.0485107908        5.9343379827        7.6740616147
  H        15.1905380628        4.6657288093        7.3155853505
  C        17.4418996792        4.4058240544        6.9887497592
  H         5.8436148760        7.5776737226        1.2620098623
  H         4.8203981623        6.2497519670        1.0579036984
  C         4.3336340572        7.3578197857        2.8522884843
  C        12.8819566096       -0.6774749101       -2.5847201870
  S         5.6818177646        5.5703347457       21.2896819548
  C         5.9512700819        8.6197140846       21.2198985305
  H        17.3771044773        3.7699049207        7.8765364256
  H        17.7360930721        3.6910629336        6.1762197689
  C        18.5570419230        5.4516321907        7.2647988267
  H         4.9388012909        7.7248208770        3.7333438474
  H         3.6816908606        6.5993300106        3.3353827691
  C         3.4775210714        8.5126651279        2.3203065749
  H        12.7291307316       -1.7467677375       -2.4545237565
  C        13.4484621725       -0.2276337077       -3.8082571275
  H         5.1374685077        8.1282046761       21.7884758602
  H         5.6747041300        9.6646365406       21.2067177448
  C         7.2473669446        8.6807269280       21.9775453506
  H        19.3414796526        5.0859664723        8.0109354525
  H        18.1844924439        6.3653813571        7.7477595901
  C        19.3255500787        5.7595556500        5.9359537331
  H         2.7374028070        8.1615642458        1.5953018962
  H         2.8689819427        8.8182139117        3.1491004465
  C         4.3914143660        9.6559364355        1.7721135921
  S        13.9470985064        1.4065088566       -4.1670493009
  C        13.4758241817       -1.1751802551       -4.9439578262
  H         7.3459393589        9.6099412666       22.4977127042
  H         8.1387976476        8.5220494782       21.4669249590
  H         7.1727511688        7.9760841795       22.8085270259
  H        20.3238068339        6.2773371935        6.0989584804
  H        19.4617150162        4.8151904818        5.2650007269
  H        18.7022335049        6.4479227501        5.3300699302
  H         5.2388343010        9.7604853930        2.4448745883
  H         4.7625151031        9.3860878716        0.8425311543
  H         3.9035428720       10.5917466110        1.6200003983
  C        14.3646745298        0.6998242263       -5.7767205789
  N        14.0158078719       -0.5870253953       -5.9490105971
  O        13.2865520140       -2.3635225164       -4.7858363139
  S        14.8100157823        1.6907973029       -7.1675477946
  C        14.1425091171       -1.2334219142       -7.2129790710
  H        14.3037676489       -2.2909113524       -6.9959326889
  H        15.0526072116       -0.8086317801       -7.6354283476
  C        12.8579301136       -1.1092352718       -8.0243493183
  H        12.4311558545       -0.1139365449       -7.8339892819
  H        12.1742006790       -1.8247683132       -7.7134122280
  H        12.9094479230       -1.1985303332       -9.1098066620
  H        -3.2771586786       14.6232089931       16.9871683213
  C        -2.4923328288       13.8101404946       16.8403712088
  H        -3.0012621647       12.8315426794       17.0906949889
  C        -1.1723288441       14.0066666443       17.6617796527
  C        -2.3952138889       13.7554555624       15.2960617224
  C        -1.4348510673       14.3996419779       19.1431602174
  H        -0.5157631634       13.1298454216       17.7686758298
  H        -0.5849524614       14.7190038853       17.1026297070
  H        -3.2462827224       14.1568807063       14.8214774548
  H        -1.5069205343       14.2702516671       14.8852731614
  H        -2.2519265043       12.7683653792       14.8878126504
  C        -1.7131418839       13.2651978466       20.0764714535
  H        -2.2684483952       15.1429879864       19.0490497871
  H        -0.6493966857       14.9927520621       19.6098162763
  C        -2.0273476640       13.7244840183       21.5075821160
  H        -2.6043531648       12.6963911951       19.8564145636
  H        -0.7450417064       12.5959223173       20.0446241182
  C        -1.1785397537       13.0045160348       22.5450922673
  H        -3.0266557838       13.3215982042       21.6580595200
  H        -1.9830342111       14.7977586896       21.5776008904
  C         0.0699569454       13.8328963536       22.8632092702
  H        -1.7735866024       12.8640687716       23.4646720300
  H        -0.9467031994       11.9549637959       22.2139659175
  C         1.2816213604       13.0633376446       23.5739017394
  H         0.3519910811       14.2914603304       21.8807768372
  H        -0.2317625576       14.6409698900       23.5147554410
  C         1.5740608911       11.7209602013       22.8860920439
  C         0.7459095799       12.3731222871       24.7216750268
  C         2.5561109329       13.9763911848       23.6365161610
  C         1.2678810910       10.5876785736       23.6480599724
  C         2.0314179576       11.3072737473       21.6223828637
  C         0.6908311389       11.0124620767       24.7978357694
  C         0.2962578931       13.0450544279       25.8918830176
  H         2.5979002468       14.4185184616       22.6333290804
  H         2.4997520582       14.6770143136       24.4619224703
  C         3.8622923583       13.2071496287       23.9101087725
  S         1.5080439027        9.0832633155       22.8629098933
  C         2.0662641824        9.9076420667       21.4080239269
  H         2.2011494452       12.0219232682       20.7856004277
  C         0.1618993217       10.4285375917       25.9016615949
  H         0.2463172214       14.1209351083       25.8441794059
  C        -0.0475494450       12.3950621341       27.0622633232
  H         3.9215581108       12.2751965980       23.4135423844
  H         3.8909334331       12.9378418522       24.9606876184
  C         5.1072603897       14.1209403705       23.6805482231
  C         2.4728195408        9.1772084082       20.1143998000
  C        -0.1725845101       11.0643839544       27.0545412248
  H         0.0751608125        9.3151359976       25.9481025075
  C        -0.4816395721       12.7648156510       28.3118135575
  H         5.9009103165       13.8248871196       24.3728752004
  H         4.8835925047       15.1252021485       24.0463130325
  C         5.4823895031       14.2674847409       22.2207444859
  C         2.4197557752        7.7984404611       19.8673720729
  C         3.0100406633        9.9849981001       19.0387998672
  C        -0.5979478853       10.2962722382       28.2477624073
  C        -0.8002877075       11.6056347245       29.0875189051
  S        -0.6988441741       14.2231028922       29.1238596676
  H         6.0474882020       15.1420469375       22.0169761091
  H         4.6028871986       14.4283757097       21.6190276824
  C         6.3627649941       13.0289231143       21.8950551991
  N         2.2026086732        6.7818097387       20.7930464187
  C         2.6722487258        7.3268013098       18.5842419254
  C         3.4116586397        9.4448107330       17.8535964457
  H         3.3441417006       10.9422460287       19.2749972013
  C         0.4621160707        9.4878367600       28.9211653168
  C        -1.9676603522        9.5869569122       28.0509310959
  C        -1.3518540031       12.0728475933       30.2601640729
  C        -1.2584202268       13.4157050132       30.5048591893
  H         7.4453496448       13.2658723399       22.1740237748
  H         6.0890562634       12.0672720360       22.2969790926
  C         6.3696262676       12.5915440758       20.4112943948
  S         2.0727899282        5.3967606024       20.0708079796
  N         2.3509491268        5.9508111782       18.5642186047
  C         3.1732668793        8.0509047190       17.4999748985
  H         3.8044007380       10.1219520159       17.1555152985
  H         0.7005726956        8.7003249641       28.1915450138
  H        -0.0033654979        9.0314526550       29.7613950569
  C         1.6956956512       10.3093523120       29.3049296189
  H        -1.9832171688        8.7880384584       27.3172593301
  H        -2.3495777512        9.1128383345       28.9740462169
  C        -3.2322641815       10.4505786530       27.7246203756
  H        -1.7425936854       11.3535726096       30.9182256415
  C        -1.6545853885       14.2321175408       31.7105871048
  H         5.3763376315       12.5007183418       20.0394261641
  H         6.7888148248       11.5652348242       20.3039339505
  C         7.2536420259       13.5442373813       19.7177628677
  C         3.3295676751        7.3766680753       16.2835936319
  H         2.1133900877       10.8224701675       28.4399559277
  H         1.3451202025       11.1889376465       29.9119652975
  C         2.7787313891        9.3681382352       29.9769108793
  H        -3.0749034495       11.0451668671       26.8627826766
  H        -3.4185341740       11.2227857988       28.4927681476
  C        -4.4316970789        9.5983728503       27.3482589166
  C        -1.7654285762       15.6060051516       31.7744074354
  C        -1.9891649976       13.4435326226       32.9502932926
  H         6.7989707905       14.4396987034       20.0124962487
  H         8.2850138615       13.5296011444       20.0689852669
  C         7.2965224805       13.5349189102       18.1590468844
  H         3.1575975433        6.3632862652       16.3639807641
  C         3.6793801522        7.8342812306       15.0194887545
  H         3.0452571242        8.5548194919       29.2636897092
  H         2.3804271028        8.8058274080       30.8724369176
  C         3.8500078861       10.2860428702       30.5748036604
  H        -4.2881635966        9.0970275858       26.3494718022
  H        -4.6248892280        8.8755093167       28.1458847511
  C        -5.7016343936       10.4426150160       27.3289424274
  N        -1.6387439467       16.5337140209       30.7772024173
  C        -2.0208791612       16.2531241485       32.9737969357
  C        -2.0818565356       14.0948394490       34.1515184991
  H        -1.7123132999       12.4104003344       32.9613672724
  H         8.1479775735       14.0940766640       17.8169687916
  H         7.5358406181       12.5770703453       17.7476622430
  H         6.3724157080       13.9762654035       17.8054991989
  S         3.8946631526        9.4320350649       14.6066584876
  C         3.8487275813        6.8895493450       13.9192748676
  H         3.8683258273       11.1612176316       29.9342457875
  H         3.6197297085       10.4557769668       31.5911219145
  C         5.2579327317        9.5905511746       30.5223666043
  H        -5.4117432135       11.3455874689       26.7339900341
  H        -5.9629055303       10.7567942602       28.3102400479
  C        -6.8400582014        9.6791407380       26.6917691758
  S        -1.6670131821       18.0437755949       31.3475786241
  N        -1.9507445322       17.6687373515       32.8890247587
  C        -2.1950002554       15.5594325774       34.1903255292
  H        -2.2824749404       13.5270920580       35.0871175070
  C         4.0630828278        8.8735656307       12.9238652508
  N         4.0616256076        7.5194658619       12.7955921898
  O         3.8517774773        5.6649680787       14.1228097432
  H         6.0093576414       10.2968154162       30.9017767673
  H         5.4334979833        9.3874200519       29.4934364523
  C         5.4322133221        8.4781935566       31.5844013407
  H        -6.5330998362        8.7108929970       26.2583826820
  H        -7.5726445253        9.1270120422       27.3884730434
  C        -7.5606108973       10.5418621271       25.5870195635
  C        -2.4938010810       16.3480081838       35.3519249171
  S         4.5342382068        9.8734616147       11.5538491268
  C         4.2153242305        6.7274612349       11.5273940776
  H         6.2679362739        8.7240513386       32.2574853840
  H         4.5512269426        8.3221465306       32.2291360864
  C         5.7925477090        7.1375468126       30.9635533074
  H        -6.8120756465       10.8388720250       24.8819412936
  H        -7.9834280444       11.4328529801       25.9742648970
  C        -8.6623913862        9.7482862009       24.8922130467
  H        -2.1261187676       17.3758796522       35.3170074736
  C        -3.0483882314       16.0617709920       36.5826024775
  H         4.9006950982        7.2765088143       10.8090075046
  H         4.6458729514        5.7469779955       11.6361758062
  C         2.8216013644        6.6074646974       10.9074730217
  H         6.7343367813        7.1290646615       30.3977669697
  H         4.9931014289        6.8498283809       30.2610114580
  C         5.7843393201        6.0375761503       31.9925821103
  H        -8.9758152778       10.2479487716       23.9553137824
  H        -8.3269860872        8.7733468454       24.6654521827
  C        -9.8458099046        9.5678798997       25.7016126113
  S        -3.5936334835       14.5367613929       37.1298749909
  C        -3.2058117862       17.1085651119       37.5519321039
  H         3.1452515662        5.9228593695       10.0876265217
  H         2.0164299593        6.1538219238       11.5024366398
  H         2.4615036726        7.5235239823       10.5423800579
  H         6.5680287637        5.3992452748       31.7014107829
  H         4.9572712707        5.3192124080       32.0214887272
  H         6.1323782644        6.3009507493       32.9857845937
  H        -9.6363063044        9.3424513398       26.7517562759
  H       -10.5355930382        8.8994568762       25.2259533577
  H       -10.3028704751       10.5493968649       25.7727454340
  C        -4.1093787692       15.3133881660       38.6606216360
  N        -3.8856779868       16.6688528320       38.6127725922
  O        -2.8873584465       18.2879638549       37.3521709227
  S        -5.0789971104       14.5266903095       39.9043307670
  C        -4.2115494868       17.5266546309       39.7245950945
  H        -4.4580209212       18.5419286796       39.4104721468
  H        -5.0718830948       17.1337194638       40.1983704570
  C        -3.0248275124       17.6917529306       40.6996658593
  H        -2.4972228406       16.7266412019       40.6875283346
  H        -2.3513544796       18.5107951780       40.4003392247
  H        -3.4222825623       17.8957481970       41.6869559277
