352
i=
  H         3.9398610234        1.6117979306       13.3610329240
  C         3.5271355088        2.5935421631       13.1974010433
  H         4.3472047138        3.3010450822       13.0289979315
  C         2.7985667234        2.5637210389       11.8695779490
  C         2.6812092457        3.0285100831       14.3299791699
  C         3.6563094205        2.7231569079       10.6489938684
  H         2.0512533260        3.3896771311       11.8605739673
  H         2.2579441725        1.6524755648       11.8500485178
  H         3.3868799219        3.2627737605       15.1531998330
  H         2.0170909421        2.1989578682       14.6164472696
  H         2.1091630596        3.9397518842       14.0129903193
  C         4.3548918201        1.4250348579       10.2402151791
  H         3.1265785231        3.2757233206        9.9245339788
  H         4.3922926647        3.3888196681       10.8159558797
  C         5.1132382775        1.6037374369        8.9124804254
  H         3.6155073161        0.6282326073       10.2533372295
  H         5.0358048750        1.2024774907       11.0947741275
  C         6.3957110918        2.3684569287        8.9318891847
  H         4.3610095928        2.0536298992        8.2416505648
  H         5.4808480153        0.6282795858        8.5585211836
  C         7.6852629950        1.6359850077        9.3774468164
  H         6.5052074665        2.7666045262        7.8758992138
  H         6.2410175738        3.2638045134        9.5407192176
  C         8.9214586337        2.5968248615        9.5413536817
  H         7.9450262630        0.9568821457        8.5224070260
  H         7.6010027365        1.0819679411       10.2798585052
  C         8.5781444401        3.9725176981       10.1270471161
  C         9.4160901617        3.2224339066        8.2438735148
  C        10.0260268409        1.9072703787       10.2539003432
  C         8.8504872635        5.0114619924        9.3042568938
  C         8.1269887017        4.4684604775       11.4126878102
  C         9.4313570215        4.5843256003        8.1186549646
  C         9.9939032678        2.5458435374        7.1410690569
  H         9.7194684608        1.5745560383       11.2605464541
  H        10.3090204886        0.9559741667        9.7433689350
  C        11.2834276867        2.7828810070       10.5465535748
  S         8.3899215997        6.5250779076        9.8947804557
  C         7.9957891017        5.8523121708       11.4306346682
  H         8.0178022523        3.7729130698       12.2461596353
  C        10.0126818855        5.1471731243        6.9567407657
  H        10.1499308435        1.4901838149        7.2817559822
  C        10.5394231988        3.1411047899        6.0038883121
  H        11.0541811234        3.7629600561       11.0632197460
  H        11.7098830582        3.2428071000        9.6640223663
  C        12.4323627583        2.0920057049       11.1909977482
  C         7.5210617022        6.6006875691       12.6727895160
  C        10.5028233871        4.4699871186        5.8812820661
  H         9.8598492515        6.2253519590        6.7643987570
  C        11.0073741051        2.7180835516        4.8029152003
  H        13.2733001170        2.7644739440       11.3113321912
  H        12.8883185529        1.3660804529       10.4830461919
  C        12.2337546384        1.4359583208       12.5100889571
  C         7.6204102924        8.0189000279       12.9117259194
  C         6.9498785088        5.8038993931       13.7395089930
  C        10.8922908375        5.1737801562        4.6107465943
  C        11.1667708702        3.8208174319        3.9795215187
  S        11.4294087495        1.1662967897        3.9811923162
  H        11.2401842314        1.1409045229       12.7770029643
  H        12.7410724370        0.5088805880       12.6149710244
  C        12.6921757843        2.5105956713       13.5476681404
  N         7.9809669257        8.9750394782       11.9587560273
  C         7.2561567892        8.5916415747       14.1233930497
  C         6.7590645587        6.3219469114       15.0133429853
  H         6.7286143150        4.7724514100       13.5462773374
  C        12.1764275154        6.1287280925        4.8224468615
  C         9.7503471354        5.9411570622        3.9671808934
  C        11.4877417655        3.3970861715        2.6578975692
  C        11.5949809807        2.0406703067        2.4942905731
  H        12.6451568717        3.4935248474       13.1537392773
  H        13.7571630616        2.2796563901       13.7608042225
  C        11.8700284455        2.5462871256       14.7972115082
  S         8.0182940733       10.4590726698       12.6547016404
  N         7.4533041925        9.9892220337       14.1849197900
  C         6.8203552111        7.7706681091       15.2101949029
  H         6.3672298865        5.6852769215       15.7578102744
  H        11.8950969703        6.8991819544        5.5549966826
  H        12.4058744396        6.7694885092        3.9235014424
  C        13.4480258130        5.5008239334        5.2814975399
  H         9.4145340847        6.7110201773        4.6968871097
  H        10.0917778059        6.4379701606        3.0688951203
  C         8.4462659560        5.1277360135        3.7587577434
  H        11.7276236631        4.1499859454        1.8963960294
  C        12.0402174715        1.3424915574        1.2683972842
  H        12.1296835725        3.4462528035       15.3384709648
  H        10.8097726988        2.5784782884       14.6786283598
  C        12.2084315383        1.3778362735       15.7352182064
  C         6.6633078514        8.4472586742       16.4598878521
  H        13.0942712877        4.8674287579        6.0509853157
  H        13.8282432546        5.0437161083        4.3974425099
  C        14.5761113085        6.4548593426        5.6742714078
  H         7.9683168471        5.1185883265        4.7179307232
  H         8.6420553829        4.1125176137        3.5158961719
  C         7.4702106397        5.8768765173        2.8532265058
  C        12.2123925471       -0.0810466815        1.1319101015
  C        12.0414287618        2.1109257530       -0.0113884592
  H        12.9204122131        0.6063879506       15.4061605625
  H        11.3729303362        0.8298847150       15.8360620754
  C        12.5945965940        1.7410141273       17.1875083285
  H         6.8390754725        9.4935790663       16.3658379421
  C         6.3390631015        8.0712266494       17.7234223429
  H        14.3171454283        6.9338505113        6.5822756912
  H        14.6884700208        7.2783474200        4.9991118123
  C        15.8691669941        5.6915319658        5.6811129117
  H         7.3510776675        6.8355010400        3.2561166157
  H         7.9170898846        6.0570404000        1.8712796263
  C         6.1897980858        5.0731053910        2.7684880162
  N        12.0161683449       -1.0264833217        2.1789321082
  C        12.3921030864       -0.7194919785       -0.0886711009
  C        12.3229469049        1.4227367675       -1.1952849609
  H        11.7052871212        3.1789462948       -0.0714999954
  H        12.4134378984        2.7507938489       17.5465946664
  H        13.6672025788        1.8484493070       17.0117931312
  H        12.4254724106        0.9831006204       17.9785252718
  S         6.1191241118        6.4663867661       18.2982924310
  C         6.3825289381        9.0587991626       18.8371139191
  H        15.6337628199        4.7836376783        6.2069345188
  H        16.1185948484        5.4648406873        4.6695644753
  C        17.0085570270        6.2939593577        6.4911126929
  H         6.1012658140        4.4570805579        3.6372212398
  H         6.2868836720        4.4404743584        1.8656495937
  C         4.9371104438        5.9308164251        2.6473144174
  S        11.9230489968       -2.4850751395        1.5162698511
  N        12.3967721872       -2.0929106500        0.0411718139
  C        12.5426538107        0.0105211182       -1.2740433009
  H        12.3522873497        2.0358204370       -2.0553189726
  C         6.1051656738        7.0931688262       19.9597811270
  N         6.1577639838        8.4217865546       20.0019394449
  O         6.7296752625       10.2020994460       18.6535911708
  H        17.3948908301        7.1296404717        5.9514772845
  H        16.5715401901        6.6503428725        7.4323932413
  C        18.1216660079        5.3236858656        6.8546800980
  H         4.0044176079        5.4208762295        2.9501016241
  H         4.9694113453        6.6279264428        3.5099744998
  C         4.9004679173        6.7293126880        1.2826366285
  C        12.7485767357       -0.6871750554       -2.4755161094
  S         5.6116868279        6.1944702869       21.3244130956
  C         6.0874911348        9.1974073724       21.2757930295
  H        17.8073473424        4.8747495032        7.7542139437
  H        18.1182372616        4.5715881828        6.0643405814
  C        19.3461725287        5.9983413595        7.1697860260
  H         4.5134576781        6.1114795702        0.5468685145
  H         5.8906641508        7.0261397614        0.9614971349
  C         4.0515994892        8.0337596962        1.5165371654
  H        12.8806471841       -1.7154550943       -2.2675189358
  C        13.2215754722       -0.2666083224       -3.6337861703
  H         5.2800378527        8.8967351908       21.9538195151
  H         5.9294311904       10.2616484129       21.0139469151
  C         7.4908429994        9.0950090188       22.0540336379
  H        19.8406162715        5.4787654015        8.0331040441
  H        19.1440565642        7.0557848793        7.4906357593
  C        20.4007300000        6.0384090073        6.1209856196
  H         3.6042503097        8.3717383475        0.6087237007
  H         3.2498119044        7.8299677631        2.2039478032
  C         4.9173256092        9.1471844053        2.1275397976
  S        13.7774111713        1.2812684837       -4.1368117534
  C        13.3382627861       -1.3393310955       -4.6369711712
  H         7.3919748112        8.2493624667       22.7315675549
  H         7.8016849150       10.0147896487       22.7328106498
  H         8.3476901519        9.0573036469       21.3569871219
  H        19.9614096732        6.3838618912        5.1861285582
  H        21.2418660451        6.7513037758        6.2323796273
  H        20.9539533234        5.0760304095        5.9179224689
  H         5.0540658248        9.0778129317        3.2131794152
  H         5.9603653645        9.0534299492        1.7155102270
  H         4.4770021120       10.1451091116        1.9263183960
  C        13.9554508723        0.5203122138       -5.7292321193
  N        13.8408352641       -0.8192074746       -5.7238891473
  O        13.0389512357       -2.5185809983       -4.3820071805
  S        14.5477880327        1.2713207514       -7.2152483442
  C        13.9158533194       -1.5780572224       -6.9716289505
  H        14.0109991065       -2.5850316511       -6.6378301642
  H        14.8315223806       -1.2688325151       -7.4577710631
  C        12.6141691145       -1.2606533994       -7.7932242998
  H        12.1850478350       -2.2135287405       -8.0630019214
  H        12.8748398237       -0.8102327258       -8.7950525412
  H        11.9675856035       -0.6085722301       -7.2123728973
  H        -2.8318317705       15.6790039745       16.0840820698
  C        -2.6686657275       14.5117947374       16.1246002267
  H        -3.6844562004       14.1388671614       16.3498049396
  C        -1.6455529987       14.1312856439       17.1018137794
  C        -2.2874964787       13.9922734577       14.7721479872
  C        -2.0438522148       14.4794970841       18.5076437443
  H        -1.5548392010       13.0661901483       17.1305497810
  H        -0.6719648561       14.4620263867       16.8527979543
  H        -1.3372204964       14.4132470354       14.3823171207
  H        -2.1749154596       12.9287698762       14.7928515959
  H        -3.0814445352       14.2461681359       14.0631132950
  C        -1.5106139054       13.4022598097       19.4967991539
  H        -3.1052528657       14.6149829619       18.7188767094
  H        -1.4873975738       15.4296328726       18.7721762779
  C        -2.1010736659       13.6181157646       20.9458724544
  H        -1.6229508030       12.3458495645       19.1885482097
  H        -0.4108494195       13.4870624673       19.5214898514
  C        -1.1931086652       13.0679643562       22.0529510737
  H        -2.9066865435       12.9327018977       21.1547106449
  H        -2.3278792050       14.6730623525       21.2254527245
  C        -0.0721506634       13.9704616271       22.5443824040
  H        -1.7813037838       12.9252480529       22.9070586579
  H        -0.8312930452       12.0954816987       21.7918288407
  C         1.1407895847       13.2876251873       23.3526924880
  H         0.3472509965       14.5985469384       21.6352317722
  H        -0.5706973545       14.7370236023       23.1936820126
  C         1.5826200730       12.0084440832       22.7034105506
  C         0.7190577718       12.5779060561       24.5947711920
  C         2.4574880107       14.1946020691       23.5211140736
  C         1.2719654446       10.9175984131       23.4601872806
  C         2.2014837116       11.6799942907       21.4752426883
  C         0.7541060322       11.2205696063       24.7113694912
  C         0.2387549730       13.2421809067       25.7480063812
  H         2.5303569302       14.6054406329       22.5129130769
  H         2.1965157753       14.9594149080       24.2740396181
  C         3.7588951587       13.5055604684       24.0715425932
  S         1.6198806450        9.4435792686       22.6246316614
  C         2.2419195093       10.3441149521       21.2779256224
  H         2.4772893270       12.4757462991       20.7783895266
  C         0.3099470201       10.6191605758       25.8550628686
  H         0.0967507788       14.3175080504       25.7237090007
  C        -0.1315498661       12.5542141231       26.8843165370
  H         4.0108051835       12.6437452689       23.4712805690
  H         3.5263252546       13.1145391241       25.0798977009
  C         4.9731975285       14.3856321877       24.1957079823
  C         2.7455235983        9.6189376137       20.0273416657
  C        -0.1291231104       11.2243647138       27.0260897393
  H         0.3570243973        9.6107071427       25.8913610594
  C        -0.6334933620       12.9214708234       28.1289148862
  H         5.7398109177       13.8334788913       24.7073607471
  H         4.8226881125       15.1887232513       24.8626983567
  C         5.5426315060       14.8313448418       22.8355034739
  C         2.6949517658        8.1956376546       19.8104463125
  C         3.2860934790       10.3767575144       18.9333223383
  C        -0.5310399958       10.4847452578       28.2335554444
  C        -0.8805168192       11.8215026591       28.9404753538
  S        -0.8877742617       14.4936353910       28.8125394170
  H         6.1465644242       15.7147552078       22.9483523050
  H         4.6909281498       15.2560929064       22.2390302085
  C         6.2332542323       13.7266678692       22.1030664309
  N         2.4180311969        7.2028105792       20.7669994761
  C         2.8813897772        7.6122494289       18.5825815077
  C         3.4148287961        9.8202715269       17.6518884773
  H         3.4001235003       11.4286668974       18.9952677345
  C         0.6420545542        9.6477250369       28.8019454472
  C        -1.7470567316        9.6340997126       27.8577813318
  C        -1.3281392801       12.2870632896       30.2367323643
  C        -1.2845052749       13.7029065303       30.3209318836
  H         7.2989852419       13.7933777605       22.2866576792
  H         5.9004954422       12.7046440879       22.3836436158
  C         6.1421257772       13.8554539987       20.6030473350
  S         2.4260901638        5.7293732107       20.0348028545
  N         2.8255909745        6.2358938276       18.5748121383
  C         3.1271156905        8.4012726705       17.4561365575
  H         3.6963121597       10.4806485456       16.8502730514
  H         0.9945212519        9.0244302772       27.9637401861
  H         0.1722049089        8.9944360235       29.5480487416
  C         1.7032628555       10.5024225605       29.4266482317
  H        -1.5300281703        8.9294594871       27.0596468991
  H        -2.0793205996        8.9778933014       28.6646174798
  C        -3.0088841397       10.3810048184       27.4803873235
  H        -1.4857134761       11.4215998216       30.8900165033
  C        -1.5440036211       14.4321265177       31.6126191891
  H         5.8805275723       14.9132185274       20.4270619303
  H         5.2152547902       13.4138092329       20.1634958002
  C         7.2937123708       13.2133127114       19.6949110043
  C         3.3344250524        7.6800891465       16.2049455051
  H         2.1411420431       11.1301467920       28.6298832470
  H         1.2190568383       11.1466653653       30.1801488792
  C         2.8035073569        9.6428073365       30.0929416786
  H        -2.8283343695       11.0212182771       26.6610909561
  H        -3.3720026159       11.0100401228       28.3158104032
  C        -4.1349226485        9.5244566139       26.9585412102
  C        -1.6644345884       15.8192355772       31.8004398104
  C        -1.7069567411       13.6573358233       32.8448404433
  H         8.1911099828       13.8122677684       19.9089977875
  H         7.5322075482       12.2326088792       20.0637533641
  C         7.1166601785       13.3999495821       18.2096346623
  H         3.1989078664        6.6351935734       16.3461778258
  C         3.6849703842        8.1249120091       14.9504411481
  H         3.1100689053        8.7698958551       29.4872765768
  H         2.5193651435        9.2413713771       31.0459169559
  C         4.1140310766       10.5400607312       30.4803544351
  H        -3.7668340861        9.1460459351       26.0071641888
  H        -4.3952701834        8.6690716167       27.5864767488
  C        -5.3382690135       10.3083922032       26.4861020594
  N        -1.4890860811       16.7205041510       30.7243545767
  C        -1.8910571035       16.3885070915       32.9985000433
  C        -1.9654069724       14.2458081432       34.1039244041
  H        -1.5751690358       12.5502489568       32.8133030317
  H         6.0959012790       13.4737527174       17.9734270076
  H         7.5562980723       14.3021617013       17.7905033760
  H         7.4331152295       12.5147989827       17.6169407967
  S         3.8787799882        9.7438105277       14.3949412220
  C         3.7304338015        7.0323953103       13.8894097021
  H         4.1416540870       11.2407909103       29.6999872113
  H         3.9334671479       11.1830487007       31.3022698671
  C         5.3408530894        9.6621787513       30.6269658934
  H        -4.9590066288       11.1242402803       25.8210164607
  H        -5.7723743808       10.7222052167       27.3571089331
  C        -6.4171315544        9.5012096891       25.8325011026
  S        -1.4711541689       18.2250047600       31.4511019205
  N        -1.8548168535       17.7085287048       32.9268528371
  C        -2.0417995257       15.7162833218       34.2916143123
  H        -2.1292112052       13.6147719783       34.9622385341
  C         4.1309025656        8.9587534727       12.7967287369
  N         4.0173124768        7.6236535206       12.6900621413
  O         3.5803710839        5.7995172654       14.1023385938
  H         6.1747253027       10.3126367620       31.0929428300
  H         5.6273564450        9.4523034188       29.6262956197
  C         5.1466174810        8.3659806878       31.3579917038
  H        -5.9881628326        8.7586549993       25.1661694555
  H        -6.8191512702        8.8382043803       26.6982629693
  C        -7.5265550771       10.3767575568       25.1214798739
  C        -2.4300296996       16.4946112611       35.4054676906
  S         4.5496114895        9.8257659401       11.3183681534
  C         3.9688954121        6.8931066511       11.3686450990
  H         4.4793898898        8.5652228057       32.2147131279
  H         4.6057353737        7.7287536809       30.6641899117
  C         6.3861158172        7.6887824736       31.9106546793
  H        -7.0568264350       10.8140914511       24.2541082536
  H        -7.7674297528       11.3332368556       25.6665115280
  C        -8.7917780812        9.5987217663       24.6611267027
  H        -2.3369832873       17.5562931836       35.3807115878
  C        -2.9722088317       16.1068576269       36.6276871908
  H         4.6847812251        7.2694218823       10.7115876829
  H         4.3554326700        5.9182256468       11.5503231617
  C         2.6000569357        6.7889960023       10.7952285627
  H         6.4858312899        7.7363620574       33.0191364280
  H         7.1795528003        8.2121462136       31.4679642476
  C         6.6755504195        6.1674061456       31.4974701622
  H        -9.3349788358       10.3401647187       24.0566129011
  H        -8.6997030752        8.6692242242       24.0700839384
  C        -9.6932054278        9.4295908795       25.8530027810
  S        -3.4618923219       14.5408782526       37.0084191501
  C        -3.2939252341       17.1803114403       37.6335746248
  H         2.6144708968        5.8982663593       10.1749014924
  H         1.8349062609        6.7491233448       11.5852442162
  H         2.3653065227        7.6787092665       10.1504645502
  H         6.9303785864        5.6176459499       32.4046791541
  H         7.5566810353        6.0657465641       30.8085135648
  H         5.8950788387        5.6988036527       30.9868987959
  H        -9.4542274238       10.0668473066       26.7170154905
  H        -9.5298034918        8.4212804520       26.2583127240
  H       -10.6825753370        9.6862581796       25.6003805710
  C        -3.8868645772       15.1933530737       38.6035345425
  N        -3.8461389944       16.5466189588       38.6577943123
  O        -3.0453992237       18.3635056278       37.5135273455
  S        -4.7776399519       14.2673665476       39.8267757704
  C        -4.1970036981       17.2806472684       39.8255017561
  H        -4.3431256924       18.3611740594       39.6166357257
  H        -5.0494042428       16.8969632704       40.3203288343
  C        -3.0340267601       17.3270686377       40.8416016528
  H        -3.3485053143       17.9462205442       41.6883131116
  H        -2.6795345480       16.3997666728       41.2099699607
  H        -2.1838038552       17.8560163684       40.3563196380
