352
i=
  H         4.3322816966        1.1506892080       12.2153743338
  C         3.9436816783        2.1814278434       12.3048876787
  H         4.7356583090        2.8832321392       12.2929007002
  C         3.0297681160        2.4595807135       11.1368118594
  C         3.2936906878        2.3349731406       13.7082166483
  C         3.9037426113        2.6889864094        9.8594298151
  H         2.3757322195        3.3425261251       11.2183491947
  H         2.3453079604        1.5797934562       11.1205384064
  H         2.6282318934        1.4714671964       13.9293688258
  H         2.5721615331        3.1269141182       13.8738813924
  H         4.1452653241        2.2923619555       14.3817420130
  C         4.8251575316        1.4797246882        9.4421964911
  H         3.1847934286        2.8457414346        9.0194930917
  H         4.4895757097        3.6237373553        9.8887089263
  C         5.5791430217        1.9373462176        8.1441143838
  H         4.2549312560        0.5691909601        9.3286709388
  H         5.5546337427        1.3365019818       10.2447983764
  C         6.8074273017        2.8096506312        8.3549757158
  H         4.8040862658        2.5191063692        7.5892025965
  H         5.6275083877        1.0146694504        7.5269754563
  C         8.0226253698        1.9710218982        8.9635953278
  H         6.9781949753        3.2875236251        7.4302724600
  H         6.5241209777        3.6128297771        9.0638557172
  C         9.2844423291        2.8076749714        9.1710481287
  H         8.3937471490        1.1707995877        8.3095913011
  H         7.8209166598        1.5729486496        9.9667996150
  C         8.8719270143        4.1750105027        9.7459593151
  C         9.6962377326        3.4680849080        7.9459950186
  C        10.3495417088        2.0761408637        9.9880837350
  C         9.0287766031        5.2632552076        8.9138174723
  C         8.3226126754        4.5488692465       10.9874872411
  C         9.6265930076        4.8030472034        7.7493386015
  C        10.1833048695        2.8205804732        6.8163386396
  H        10.0120537222        1.6530552326       10.9003847657
  H        10.6607276030        1.1866232838        9.3700112411
  C        11.5839553191        2.9106718071       10.2676011366
  S         8.6040072481        6.7649830695        9.6042560188
  C         8.1373826270        5.9230329514       11.0548204563
  H         8.2465022754        3.8204723447       11.7507968210
  C        10.0637390056        5.3781222742        6.5977676601
  H        10.1156588399        1.7735802931        6.7635931334
  C        10.5918083632        3.3888494174        5.6403422995
  H        11.2878690772        3.8376869555       10.7328276462
  H        12.0552088155        3.3360638959        9.3841878562
  C        12.6675284144        2.1560038058       11.0893361693
  C         7.5850123617        6.6372114609       12.2590551419
  C        10.6242890230        4.6972779149        5.4765443330
  H         9.9437433145        6.4598788283        6.3778944118
  C        10.9573154750        2.9086576970        4.3679379262
  H        13.6534247568        2.5417722122       10.8965628323
  H        12.6029866252        1.1194228953       10.8075237237
  C        12.3274612216        2.1272564914       12.6544405059
  C         7.7620058557        7.9875486286       12.6471061602
  C         7.1476942695        5.7420445986       13.3965098711
  C        11.0734045150        5.3039614507        4.1894200464
  C        11.2663711775        3.9388881063        3.5125165448
  S        11.1153518906        1.3205658214        3.7516016639
  H        12.0571497152        3.0973176051       12.9979391883
  H        11.5475973534        1.4281855231       12.7194924091
  C        13.4951112045        1.5563115541       13.5707859532
  N         8.4026662797        8.9870065853       11.8474648394
  C         7.4041160754        8.4370427161       13.9160353387
  C         6.8036336745        6.2099283480       14.6647520517
  H         7.0088222903        4.7438404722       13.1021676145
  C        12.3899321009        6.2147345639        4.2556656282
  C        10.0573301404        6.0257937612        3.4150763633
  C        11.6019721821        3.4040265719        2.2749538167
  C        11.5926746338        2.0636444156        2.2722397576
  H        14.3254472088        2.2499514891       13.4258463169
  H        13.8337054767        0.5408493655       13.2752459044
  C        13.0724652125        1.4814809396       15.0018363873
  S         8.1228241686       10.4469362793       12.6042412320
  N         7.5681018458        9.8139778067       14.0072386846
  C         7.0113002634        7.6252581594       15.0238243973
  H         6.3673118261        5.5476323361       15.3828656864
  H        12.1578919606        6.9238852397        5.0944414241
  H        12.6153704113        6.6814358400        3.2846172799
  C        13.6572977615        5.4983040926        4.8094852805
  H         9.8415939900        7.0194948068        3.8233886907
  H        10.4014423570        6.3499907057        2.4348156732
  C         8.7557154669        5.1759551044        3.1876910132
  H        11.7984454587        4.0638065330        1.4355655247
  C        11.8833181969        1.2628424089        1.0291284519
  H        12.0219715535        1.1242253045       15.0171803489
  H        13.7189223981        0.7920952451       15.5509314126
  C        13.1983786038        2.8370617147       15.6853940589
  C         6.7340091862        8.2483533496       16.2288678473
  H        13.3154878640        4.8915310072        5.6837885092
  H        14.0511856548        4.8864915841        4.0465750167
  C        14.7755071576        6.5474099351        5.1544303229
  H         8.3359353161        4.9632276764        4.1099503857
  H         8.9474210731        4.2189513826        2.6879791623
  C         7.6198064342        5.9099078516        2.4492379993
  C        11.8406097175       -0.1241110816        0.8588645796
  C        12.2207494198        1.9890724320       -0.1950217029
  H        12.6111180838        3.5640311044       15.0828654077
  H        14.2760411543        3.0703492552       15.5214853781
  C        12.8777376555        2.6955133604       17.1964074508
  H         6.5910426654        9.3213750469       16.1949205597
  C         6.5848419619        7.6384247744       17.4433455135
  H        14.5138396004        7.0178061570        6.0493679113
  H        14.9111089021        7.2198521273        4.2529120252
  C        16.0506053990        5.8062082090        5.4563505317
  H         7.3849571469        6.7566552829        3.0773466042
  H         7.8125374889        6.3133425565        1.4237736064
  C         6.3639133791        5.0359397217        2.3941665844
  N        11.5950176099       -1.0409664783        1.9185830313
  C        12.2482548867       -0.8334114623       -0.2497120958
  C        12.3466162090        1.3503571702       -1.4465345527
  H        12.1429583331        3.0449908215       -0.2181403443
  H        11.8376675645        2.3728015456       17.2605406221
  H        12.8660316150        3.6434324732       17.6161065450
  H        13.5296600121        2.0410106116       17.7336634850
  S         6.4937965011        5.9574571146       17.8592228653
  C         6.3897207219        8.6060959678       18.5799351536
  H        15.8591024346        4.8043576432        5.2070833743
  H        16.8325575046        5.9686702190        4.7563220690
  C        16.7044263236        5.9997183759        6.8064346616
  H         6.0301553756        4.7722921532        3.4021702948
  H         6.6586124160        4.1245810373        1.8831639290
  C         5.1863385822        5.7798880738        1.6703368313
  S        11.7528344747       -2.6059040985        1.3808342637
  N        12.2567166743       -2.1955436775       -0.1188323695
  C        12.4371447149       -0.1148011156       -1.4981200708
  H        12.5390447175        1.9577002624       -2.2921012488
  C         6.0901679639        6.5432813992       19.4527488208
  N         6.0361081889        7.8740260425       19.6676726123
  O         6.4722258884        9.8162932257       18.4745666496
  H        16.9149747872        7.0582671790        6.9379327440
  H        16.0345996938        5.7492011002        7.6001244819
  C        17.8823248097        5.0765163842        7.1267246701
  H         5.5462134415        6.3676035499        0.8062135762
  H         4.5156737119        5.0121879240        1.2416835343
  C         4.5550871722        6.6973575000        2.6377417229
  C        12.6822918918       -0.8231504819       -2.7076598197
  S         5.5240799321        5.5029097383       20.7251795499
  C         5.8180630682        8.5111682915       20.9655665160
  H        17.8265882975        4.8909115727        8.1770736379
  H        17.8168941211        4.1570702680        6.5665956456
  C        19.1536920165        5.7514092005        6.9339390118
  H         5.1727565466        6.8290105162        3.5433465752
  H         3.5604616226        6.3627236751        2.8963014870
  C         4.2904245533        8.0411479401        2.0600162155
  H        12.4181670607       -1.8582276188       -2.6632901847
  C        13.2934324942       -0.3833290601       -3.8875994735
  H         5.1245658198        8.0686040046       21.5769623221
  H         5.4288269361        9.4922134333       20.8913113740
  C         7.1601806910        8.6243093629       21.7707293119
  H        19.9245339061        5.2654103911        7.4828675916
  H        19.1430705114        6.7737874995        7.3314977944
  C        19.6655250295        5.6712917152        5.4043471142
  H         5.1224390396        8.3955124305        1.5106846966
  H         3.3861159553        7.9762469499        1.4270682856
  C         3.8909135349        9.0595378744        3.1024507971
  S        13.8793407741        1.2261323175       -4.3296475957
  C        13.3972625458       -1.3796581543       -4.9930612528
  H         7.9738474125        9.1175963792       21.1892217540
  H         7.4016043455        7.6484768033       22.2552933507
  H         6.8960431672        9.2810038725       22.5540600049
  H        20.7405746786        5.9117303095        5.3261630416
  H        19.4258162723        4.6844486890        5.0045956156
  H        19.0490024566        6.3222073927        4.6941156774
  H         3.0007247973        9.4409298195        2.5733782502
  H         3.6315770335        8.6006875192        4.1015569791
  H         4.5802790140        9.8583644256        3.1441131784
  C        14.2302436942        0.5036062590       -5.8963530250
  N        13.9301569942       -0.7695553940       -6.0869147906
  O        13.1505944724       -2.5642053153       -4.8557383905
  S        14.7664661864        1.3673243535       -7.3246701857
  C        13.9784104195       -1.4096838265       -7.3775088744
  H        14.1777394507       -2.4892940693       -7.0905418041
  H        14.7442393493       -1.1028812378       -8.0361136192
  C        12.6413340211       -1.2646254511       -8.1094430551
  H        12.5850681937       -0.2315786558       -8.5255627890
  H        11.7115605859       -1.3640101407       -7.4876495937
  H        12.5549702123       -1.8457771935       -8.9975432779
  H        -3.6653843029       14.4603763352       16.5930901889
  C        -3.1362601969       13.4836974300       16.6816338299
  H        -3.8055834718       12.7306730819       17.0229521472
  C        -1.9847084071       13.7516293545       17.6221117578
  C        -2.6689431466       13.0778047824       15.3511701260
  C        -2.4883373312       13.8066373334       19.0652249295
  H        -1.2817015995       12.9545062005       17.5545153745
  H        -1.4929105408       14.6419776264       17.2226717822
  H        -2.4106002081       12.0123751245       15.3489820061
  H        -3.2871846991       13.3831026076       14.5735607077
  H        -1.7758324125       13.6096913974       15.1958384936
  C        -1.4128818207       13.8114414283       20.1085319197
  H        -3.1807505145       13.0517591679       19.2898089964
  H        -3.0410859204       14.7347210012       19.2922456611
  C        -1.9858941434       13.8253705983       21.4185997033
  H        -0.7513285626       12.9682207939       20.0569625489
  H        -0.8295394374       14.6931497801       19.9353595208
  C        -1.0529193755       13.0926692212       22.3336137957
  H        -2.8849904890       13.2299022594       21.4789328556
  H        -2.2704534442       14.8314646737       21.7580040403
  C         0.1862531606       13.9007414300       22.6461809917
  H        -1.4470302270       12.9500382647       23.3633689455
  H        -0.7767300659       12.1672427608       21.8369868295
  C         1.2197645794       13.1560476897       23.4864423083
  H         0.6134778548       14.3785728458       21.7946143429
  H        -0.1843439640       14.7296806155       23.3251985375
  C         1.5622848107       11.8156962077       22.7920127244
  C         0.7830311245       12.4118944911       24.7338490660
  C         2.4713617384       13.9934791521       23.7398581663
  C         1.2463787178       10.6947006522       23.5469226835
  C         1.8815216956       11.3617159423       21.4956978177
  C         0.7887802011       11.0825175545       24.7617702415
  C         0.2086333894       13.0377459317       25.8100570676
  H         2.6512009403       14.5582958237       22.8372717941
  H         2.1983802850       14.5839460026       24.6207532683
  C         3.7183213146       13.1813157058       24.0661730777
  S         1.6113353888        9.1127615802       22.8526275481
  C         2.0340821891        9.9978796407       21.3666101299
  H         2.0550063664       12.1246079022       20.7096337412
  C         0.3982239458       10.4045773504       25.8821420487
  H         0.3832366269       14.1546733714       25.8022186093
  C        -0.1975427167       12.3506440811       26.9613356163
  H         4.0090219569       12.4401022235       23.3413610127
  H         3.4352790673       12.6214139818       24.9482225041
  C         5.0014289577       13.9820490120       24.3527826126
  C         2.4170330503        9.2599598316       20.0906618629
  C        -0.1083373011       10.9678453683       27.0500348285
  H         0.4281054632        9.3610931750       25.8610563674
  C        -0.6553503939       12.8051200027       28.1929204983
  H         5.6419724660       13.4467253682       24.9911943140
  H         4.6541329263       14.7843909151       24.9788025558
  C         5.7293848227       14.4465566968       23.0747207569
  C         2.4549920883        7.8683557994       19.8306175540
  C         2.8673755895       10.0524071511       18.9309234210
  C        -0.5023902990       10.3067907062       28.3158180909
  C        -0.7998906930       11.7171651653       29.0048266743
  S        -0.8826212353       14.3108032659       28.9213279597
  H         6.4686245365       15.1322456164       23.4030952301
  H         5.1127971195       15.0664997744       22.4197705161
  C         6.3637235413       13.3034548476       22.2926844384
  N         2.1953678774        6.8385800529       20.7887967652
  C         2.7727243304        7.2889736323       18.6274582027
  C         3.1989703213        9.5421905698       17.6790875767
  H         2.8245330921       11.1409900716       18.9314398016
  C         0.6291952985        9.4395050412       28.9877080089
  C        -1.7518571943        9.4990683480       28.0818399212
  C        -1.1184895683       12.1730686700       30.3111026134
  C        -1.1400731658       13.5453655491       30.4416049259
  H         7.3019925617       13.6672045076       21.9523007071
  H         6.6891049516       12.4827758643       22.9458945409
  C         5.6845903061       12.8538409347       20.9977261070
  S         2.1031015396        5.3774891256       20.0661388153
  N         2.5188830157        5.9285218131       18.6116738524
  C         3.0708698800        8.0649250575       17.4467256434
  H         3.4079535241       10.2675129884       16.9199786703
  H         0.8638576249        8.5606245528       28.4523534847
  H         0.1817357353        9.0911441053       29.8675117835
  C         1.9617270038       10.1550053313       29.3100344410
  H        -1.5290137192        8.6614002179       27.4371861288
  H        -2.1511865025        9.0712506599       29.0344964642
  C        -2.8751843148       10.3925207658       27.4935427214
  H        -1.2525903337       11.4297779801       31.1077394809
  C        -1.5636387323       14.2990447333       31.6746633696
  H         4.5711941781       12.8122438646       20.9798169742
  H         5.8973623889       11.7950736417       20.8202645490
  C         6.1425543751       13.7780128513       19.8725905823
  C         3.2762933281        7.3061318617       16.2446393060
  H         2.4090015180       10.5840186941       28.3811303793
  H         1.6964759173       11.0743266573       29.8035300234
  C         3.0581925674        9.2978218275       29.9473237842
  H        -2.6417212305       10.9918243939       26.5595664248
  H        -3.0581523269       11.2165825143       28.1646871902
  C        -4.1412306782        9.6171278699       27.1670799267
  C        -1.7493615810       15.6890150554       31.7722573658
  C        -1.8810749718       13.6020374407       32.9229381365
  H         5.3307234325       13.9179896817       19.1793966000
  H         6.5677317941       14.6576410247       20.3386561007
  C         7.2993923226       13.1471067840       19.0836019050
  H         2.8975755638        6.2542980979       16.2419059421
  C         3.7164473798        7.6999786179       15.0227460050
  H         3.8129508922        9.0250886084       29.2013917414
  H         2.7397668689        8.3722992928       30.2554769542
  C         3.7385800381        9.9525883927       31.1634380929
  H        -3.9466667195        8.9173394649       26.3820346286
  H        -4.4738892634        8.9320570596       27.9347569695
  C        -5.2853997776       10.5803326976       26.7240685927
  N        -1.6296160274       16.5608548795       30.6651675604
  C        -2.0765581522       16.3605465648       32.9261159339
  C        -2.1415977592       14.2216795752       34.0934995287
  H        -1.6794903116       12.4931553748       32.9620815790
  H         7.0341742448       12.2967346505       18.4331177086
  H         7.8262035134       13.9183354992       18.5060113055
  H         7.9999341270       12.7024540529       19.7824296347
  S         3.9919242491        9.2812874665       14.4978665010
  C         3.7505499441        6.6337393318       14.0212513609
  H         3.7049040245       11.0396225501       31.0416563253
  H         3.1637668963        9.7809568152       32.0845419190
  C         5.2079898545        9.5218312184       31.1996847907
  H        -4.8769995337       11.2994014943       25.9859801217
  H        -5.4921665676       11.2646335971       27.6151563689
  C        -6.4823004928        9.7804604273       26.1248400836
  S        -1.7478638190       18.0944637941       31.2120383408
  N        -2.1945839393       17.7647284634       32.7310020412
  C        -2.2909388498       15.7044792667       34.1643051698
  H        -2.3533480286       13.5908055411       34.8704434445
  C         4.0778629873        8.5912232847       12.8558907612
  N         3.7927766244        7.2614323425       12.8063898475
  O         3.7041630385        5.4229502565       14.1984147986
  H         5.7778080127       10.3220180534       31.6041897538
  H         5.5345667082        9.3025277289       30.1249411314
  C         5.4526476865        8.2336801839       31.9792337011
  H        -6.0463487445        9.0377456227       25.3337901538
  H        -6.8939759929        9.1344655714       26.8845455982
  C        -7.5906162744       10.6659699661       25.4982074750
  C        -2.4617413540       16.4927426991       35.3552384585
  S         4.6246169597        9.5111104675       11.4262353036
  C         3.7167231323        6.5068424231       11.5625583804
  H         6.1897747098        8.3967190801       32.7778123127
  H         4.5083572986        8.1060879140       32.4564098562
  C         5.7368309852        7.0062429096       31.1653869903
  H        -7.1108692651       11.4550233127       24.8852947533
  H        -8.0174730389       11.3177876796       26.2130084674
  C        -8.8024690347        9.9398860935       24.7930624023
  H        -2.4267954220       17.5561487653       35.2086026028
  C        -2.9200645646       16.2034136965       36.6208298522
  H         4.3375157458        6.9170023916       10.7417379514
  H         4.1668620620        5.5216502887       11.8017160285
  C         2.2545573166        6.3527585889       11.1394041057
  H         5.3277234579        6.9917513159       30.0860414790
  H         5.1566378807        6.2220536642       31.6582138009
  C         7.2323096361        6.7148392199       31.0190917046
  H        -9.1248611182       10.5182400247       23.9153097865
  H        -8.4438687236        9.0264395110       24.4214280583
  C       -10.0053254247        9.8853309969       25.7029669242
  S        -3.3725156859       14.6645422519       37.2103836727
  C        -2.9150587242       17.3501573638       37.5671387897
  H         2.1814136715        6.1876001542       10.0597596721
  H         1.8363522836        5.5241953757       11.7452231382
  H         1.5477349542        7.2201041982       11.2711115863
  H         7.3599317790        6.1103283797       30.0774093261
  H         7.6817139443        6.3989615531       31.9299201166
  H         7.7251879955        7.6318879269       30.7286598388
  H        -9.7096738245        9.4698513169       26.6613910371
  H       -10.8593921077        9.2812465329       25.3602617600
  H       -10.2855828779       10.9099803382       25.8578429662
  C        -3.8263783949       15.5665970681       38.7064655087
  N        -3.5953740647       16.9028182844       38.6698743291
  O        -2.5946645924       18.5181257785       37.3147126081
  S        -4.4058380145       14.7445749773       40.1187156857
  C        -3.7271758645       17.7537157317       39.8249558865
  H        -3.7522150627       18.7948670610       39.4934900633
  H        -4.6673346338       17.5589933387       40.3202089128
  C        -2.5450002170       17.5772332684       40.8054050597
  H        -2.9280788796       17.2804063653       41.7714806536
  H        -1.6657345639       17.0030328031       40.4158454307
  H        -2.0977698264       18.5327634715       41.1030384226
