352
i=
  H         1.9682057590        1.7519012436       13.0084452594
  C         2.9967543273        2.1185422041       12.7264101460
  H         3.5919272238        1.2306781357       12.5554992975
  C         2.9524426559        2.9824736534       11.5109236533
  C         3.4874502762        2.9973137797       13.9401736443
  C         4.3008607060        3.0276889124       10.8925883586
  H         2.5730378141        3.9649430705       11.8474548893
  H         2.2592010882        2.7137268032       10.7950013644
  H         3.6646227805        2.3173380932       14.8072186679
  H         2.8626841390        3.9105031263       14.0760740302
  H         4.4938143468        3.3617413240       13.7318939258
  C         4.8599508523        1.7995392395       10.1379150221
  H         4.2003564830        3.8373616157       10.1514882651
  H         5.1308619686        3.2594638521       11.5369414842
  C         5.2321067958        1.9753559444        8.6139134405
  H         4.2141446815        0.9649984133       10.1435076216
  H         5.7351603898        1.4200719416       10.6592900932
  C         6.5578773304        2.7817360610        8.3481881841
  H         4.3816662787        2.4510977947        8.1677552798
  H         5.3949602530        1.0061809819        8.2292298717
  C         7.8985238218        2.1024599120        8.8680863437
  H         6.7145569305        2.9790992689        7.2568147346
  H         6.4007194561        3.7658159032        8.8051353388
  C         9.1444976577        2.8574336331        9.1958963788
  H         8.2133263077        1.6353973352        7.9050640591
  H         7.6994920900        1.2691548516        9.5438720720
  C         8.7959614317        4.2345456028        9.8346047181
  C         9.7444123798        3.5649210555        7.9889729572
  C        10.2051233500        2.0196623336        9.9813449974
  C         9.1160951401        5.3571227302        9.0708618539
  C         8.1368157854        4.6474922851       10.9627754431
  C         9.7724746499        4.9452758332        7.9307338464
  C        10.2509875551        2.9693812863        6.8278697523
  H         9.8015113017        1.6383553532       10.8998416485
  H        10.5354495752        1.1317158826        9.4726059440
  C        11.3156889141        3.0556827621       10.5544254473
  S         8.6509571800        6.8616563863        9.7175105771
  C         8.0464837513        6.0096177546       11.0869892491
  H         7.7917313977        3.9102793321       11.7094123889
  C        10.1956707259        5.6046911860        6.8182610821
  H        10.1030936644        1.8838349412        6.7757896253
  C        10.6130225254        3.6908054414        5.6798264558
  H        10.8601443612        3.8490060327       11.1090634104
  H        11.9347859845        3.5339774238        9.7734923944
  C        12.3326533232        2.3010688897       11.4602886058
  C         7.4911449847        6.6437918134       12.2868902571
  C        10.5844457690        5.0182343634        5.5602727247
  H        10.0922560519        6.6563280051        6.8225469173
  C        10.9009377971        3.3151545299        4.3388887018
  H        13.1384277986        3.0135108558       11.7072370871
  H        12.7877021658        1.4627537093       10.9264231296
  C        11.7354738751        1.9473832410       12.8268509524
  C         7.5403781908        8.0427264559       12.6126375980
  C         6.9486472468        5.7874334773       13.3650831475
  C        10.9912227888        5.6860704930        4.2516167921
  C        11.1446612366        4.3635925357        3.5103217523
  S        11.1288932083        1.8120467436        3.5566003583
  H        11.0113151711        2.8059426960       13.1207982849
  H        11.1832700248        0.9895768426       12.6644567809
  C        12.8675616365        1.7042551703       13.8214812770
  N         7.9790581263        9.1340996982       11.7372697423
  C         7.3009597923        8.4719993890       13.9156246889
  C         6.7147002693        6.2375550171       14.6706911023
  H         6.6262882843        4.7470210033       13.2002694592
  C        12.3379097567        6.5214909703        4.2719481637
  C         9.7589046750        6.6066724915        3.8214353188
  C        11.4507845326        3.9996144393        2.2021951313
  C        11.4906272822        2.6418108874        2.0928310030
  H        13.4491136779        2.6159488640       14.1087530475
  H        13.5823748383        1.0912890454       13.3016240806
  C        12.4365588099        1.0992588317       15.1754318679
  S         8.2248068180       10.4774572777       12.6103991304
  N         7.5877418765        9.8642584697       14.0230984330
  C         6.8774589519        7.6448373305       15.0172321181
  H         6.2325271168        5.5785389214       15.4191750240
  H        12.1699601572        7.3387049038        4.9248938278
  H        12.4327923374        7.0468519104        3.3134596856
  C        13.6188333042        5.7700053969        4.7547804444
  H         9.3871032560        7.2738205830        4.5994329021
  H        10.1041374423        7.2745679213        3.0222568422
  C         8.6410678779        5.7610209198        3.2546212665
  H        11.7665182412        4.7748507324        1.5329184669
  C        11.9901019065        1.8261031720        0.8801357261
  H        11.7288585301        0.3257114991       14.8971117784
  H        13.3115154425        0.6806439066       15.6877714887
  C        11.9331163050        2.1700416229       16.1941956549
  C         6.5790474854        8.2558892637       16.2874375022
  H        13.3523960643        5.1109238180        5.5001974453
  H        13.9549894276        5.0842297573        3.9842695371
  C        14.8496934174        6.5928657135        5.1314625689
  H         8.2205300082        5.0301242696        3.9046780423
  H         8.9875158661        5.1589464002        2.4341380824
  C         7.5412044170        6.6723245267        2.6628054623
  C        12.0974645850        0.4034690927        0.6183116945
  C        12.2039455779        2.6660196428       -0.3299120498
  H        11.0236472536        1.8065552393       16.6887230779
  H        11.5138778352        3.0802217719       15.7540689200
  C        13.0111341739        2.6176826594       17.1106988938
  H         6.6334980961        9.3201908726       16.2668408953
  C         6.3788689057        7.8127054007       17.5863646193
  H        14.5874357883        7.1216665001        6.0768432672
  H        15.0663804276        7.3748635971        4.4583562767
  C        16.1402073145        5.7067227462        5.1806622550
  H         7.4068758195        7.3605498365        3.4895561298
  H         7.9495439849        7.2920194567        1.9086918170
  C         6.1923804201        6.0415760058        2.3008815581
  N        11.8627842971       -0.5079461267        1.6493781415
  C        12.4929398717       -0.0860437645       -0.5577064431
  C        12.6403442371        2.1703360073       -1.5514059944
  H        12.1599534917        3.7655050999       -0.1796434652
  H        13.9777138811        2.8447511174       16.5561353498
  H        13.3064989610        1.8730476740       17.7857418654
  H        12.8128633393        3.4790946920       17.6408804477
  S         6.0279003680        6.1633303078       17.9697868983
  C         6.3787077962        8.7870683842       18.6645391657
  H        15.9825304290        4.8003332704        5.7267673300
  H        16.3924916928        5.3035879609        4.1450143296
  C        17.3338563770        6.3841966272        5.7884270962
  H         5.6012874429        6.0081222026        3.1921783182
  H         6.2753904532        5.0130070561        1.9630345461
  C         5.3833822021        6.9116096399        1.3293521392
  S        11.9673773767       -1.9820176262        0.9804841370
  N        12.3020307968       -1.4829482781       -0.5677590326
  C        12.8088580373        0.6769366143       -1.7281087770
  H        12.8289207475        2.8269098276       -2.3984812482
  C         6.1034156678        6.7565314262       19.7123465304
  N         6.1421178966        8.0987857223       19.8212875810
  O         6.3863857337       10.0395050370       18.4914314132
  H        18.0798955916        6.5384352694        4.9888962962
  H        17.0298762960        7.3752957278        6.2222579411
  C        17.8916495397        5.4009035520        6.7831946501
  H         6.0639062445        7.0190788043        0.4705089387
  H         4.4492888957        6.4020835526        1.0625413674
  C         5.0166226512        8.3774117906        1.7549622697
  C        13.1068444053       -0.0338023389       -2.9491862384
  S         5.6460937005        5.8344782480       21.1481435845
  C         6.0660523885        8.8118950777       21.0993400115
  H        17.1614209817        5.1146645035        7.5728702345
  H        18.1304101710        4.4029788076        6.3925787019
  C        19.0531475434        6.1546387686        7.5110590438
  H         5.8868428717        8.9060856999        2.0326522546
  H         4.3183606356        8.4289461771        2.5270051523
  C         4.2860930010        9.0612023491        0.6751454851
  H        12.6421014815       -0.9924122416       -3.0143642436
  C        13.6822689326        0.3835727910       -4.0856756360
  H         5.4955736990        8.2826732286       21.7594099496
  H         5.5249550609        9.8007562723       21.0240900526
  C         7.4445375504        9.0728403307       21.6604194510
  H        19.3829289968        5.5269012325        8.2855905743
  H        18.7704308687        7.0509160677        7.9438613964
  C        20.1323014441        6.4831779199        6.4804764271
  H         4.4375632289        8.5982811894       -0.2668477298
  H         3.1825534656        8.9891455245        0.8860059163
  C         4.8018077672       10.5199639686        0.5379525774
  S        14.3197230845        1.9844280335       -4.4093936039
  C        13.8179457797       -0.5475453052       -5.1865331990
  H         7.6847892647        8.3099073069       22.3766621915
  H         7.4574202695       10.0005846810       22.2091872823
  H         8.2689550064        9.1120580651       20.9570167408
  H        20.5378365173        5.5791495702        6.0917333390
  H        19.8904244210        7.2743662851        5.7530839222
  H        20.9861785764        6.8527219412        7.0072839740
  H         4.1573311028       11.1344996423        1.1711330075
  H         5.7916761410       10.5616807746        0.9320792056
  H         4.7318569514       10.7238398153       -0.5306058835
  C        14.7027662801        1.3457059296       -6.0266925398
  N        14.4410594739        0.0168420264       -6.1916217794
  O        13.3006172529       -1.6579042709       -5.2640581237
  S        15.4072430005        2.2736023015       -7.2930714097
  C        14.6892400000       -0.6635239892       -7.4786916129
  H        14.6938229272       -1.7476054465       -7.3169656982
  H        15.6387593421       -0.4196307055       -8.0105219238
  C        13.5735010562       -0.3730803106       -8.4967427849
  H        12.9743101147        0.5898172803       -8.2322055410
  H        12.8777597952       -1.1494590149       -8.3344077547
  H        13.9380318317       -0.3437407901       -9.6254873913
  H        -2.7612149796       15.6527880041       16.0984389443
  C        -2.8835488257       14.6686672551       16.5648800690
  H        -3.9151875011       14.6163994732       16.8377919663
  C        -1.9586503698       14.6087863767       17.7811150957
  C        -2.5191727686       13.6511711798       15.5354262058
  C        -2.5296324844       13.7204441500       18.8467427171
  H        -0.8832400531       14.2712222844       17.5727626443
  H        -1.8190033932       15.6102924370       18.1926654097
  H        -1.6738252548       14.0298346019       14.9484776963
  H        -2.1975746942       12.6742167469       15.9683493642
  H        -3.3413945408       13.5267352897       14.8808518683
  C        -1.5721287391       13.4711936549       20.0081620065
  H        -2.5680139459       12.7547059326       18.3218833772
  H        -3.5871708157       13.8954784618       19.1745217538
  C        -2.1946387267       13.4834731908       21.4016002921
  H        -1.0631249942       12.4774797695       19.8234108171
  H        -0.7102375347       14.1131080961       19.9450618394
  C        -1.1375161971       13.0509877072       22.3822161040
  H        -3.0638248033       12.8290966803       21.3288686382
  H        -2.4685041062       14.5280259554       21.5707249081
  C         0.1691814775       13.8593285877       22.6022445810
  H        -1.6634431641       13.0176901581       23.3277433916
  H        -0.8961486676       11.9882180967       22.2412123418
  C         1.3012809319       13.1884960791       23.4611754169
  H         0.6681052455       14.1463937324       21.6299312317
  H        -0.1282409982       14.7692618688       23.0499217528
  C         1.6726000662       11.8944301278       22.7557832697
  C         0.8828376435       12.4184152924       24.6808565985
  C         2.5326088928       14.1167943403       23.7552198812
  C         1.4162751533       10.7197372348       23.5048721628
  C         2.1675387258       11.5289774882       21.4859663659
  C         0.8879003138       11.0572623561       24.7639136444
  C         0.4411240365       13.0013186850       25.8289619757
  H         2.7939006276       14.7546058230       22.9287695561
  H         2.3224206365       14.8210433346       24.5831719846
  C         3.8025658080       13.2446884721       24.1340652902
  S         1.7479573141        9.2241408705       22.6170497364
  C         2.2263661562       10.1805784211       21.2647668925
  H         2.4089031079       12.3189419692       20.8259013717
  C         0.4972906719       10.3868998684       25.8747292455
  H         0.4503570198       14.0653745432       25.7246195357
  C         0.1130199275       12.3450596458       26.9556870665
  H         4.1663101613       12.5706285975       23.3785503338
  H         3.7304948721       12.5372177382       24.9060336526
  C         4.9886757013       14.1724539588       24.1918227228
  C         2.6909955063        9.4858996049       20.0125542119
  C         0.1776092797       10.9813921597       27.0685203616
  H         0.6431056480        9.3326864971       25.8630348882
  C        -0.3033047673       12.7554928007       28.1821401668
  H         5.7745843421       13.8428414787       24.9357165236
  H         4.6684878194       15.0120597036       24.7303949092
  C         5.6518222904       14.5310102067       22.9019904213
  C         2.6462873430        8.1107189886       19.6937192195
  C         3.0177716019       10.3528778207       18.8014879475
  C        -0.1486751544       10.3104121341       28.3670661602
  C        -0.5525631245       11.6927957689       29.0051663263
  S        -0.6428884034       14.2596892241       28.8322418005
  H         6.1946555820       15.4392931949       22.9867927635
  H         4.8774081826       14.8623417229       22.1807702413
  C         6.5056577274       13.4596239212       22.2726806549
  N         2.4997940217        7.1286349236       20.6958255709
  C         2.8817245990        7.5823027638       18.4032886898
  C         3.3225515267        9.8176405467       17.5675658055
  H         3.0454622226       11.4548385843       18.9263401746
  C         1.0396356450        9.5923673436       29.0475426718
  C        -1.3999660998        9.4374434953       28.2628953063
  C        -0.8665157557       12.1363436030       30.3630110829
  C        -1.0212461809       13.4812436676       30.4022816575
  H         7.5220472710       13.6000863247       22.4967791960
  H         6.2361482818       12.4324030213       22.5316624785
  C         6.2722806528       13.5112208093       20.6792797033
  S         2.2987670292        5.6982697144       19.9087489133
  N         2.6629832300        6.2392432774       18.4064691350
  C         3.2454491572        8.2881780841       17.2809507678
  H         3.5540089154       10.5430007152       16.7790725736
  H         1.3827655276        8.9846063094       28.2581194018
  H         0.6767566325        8.9069791324       29.7594475687
  C         2.1810968780       10.4706789530       29.5450981973
  H        -1.2079528675        8.5648671111       27.5355953835
  H        -1.7232478524        8.8434700596       29.1189629728
  C        -2.6452513717       10.3187657814       27.7391974649
  H        -0.8850556271       11.3696154516       31.0983149133
  C        -1.3279090344       14.2573552014       31.6748521754
  H         6.3276530528       14.5277997328       20.3376903572
  H         5.4024950551       12.9676212396       20.3570145525
  C         7.3484779221       12.7217098812       19.9584576257
  C         3.4476714585        7.6386935923       16.0531087708
  H         2.4229525710       11.1378279611       28.7673742939
  H         1.8628052213       10.9519031947       30.5013392724
  C         3.3561408041        9.6248197142       29.8697160323
  H        -2.2721277143       10.8167996676       26.8234477922
  H        -3.1357117890       11.0576947699       28.3435402330
  C        -3.8167698293        9.4789021389       27.2779497119
  C        -1.4000779009       15.6740937869       31.7861976822
  C        -1.6343669941       13.4785077190       32.8805131553
  H         8.2435556530       13.3312822803       20.1653681526
  H         7.4920235536       11.7237820745       20.2320584980
  C         7.3369977894       12.7946224664       18.4241703210
  H         3.3188298724        6.5527671752       16.1183518301
  C         3.6229931421        8.2167983506       14.8196211097
  H         3.5547614616        9.2563407876       28.8818613680
  H         3.1706850773        8.8484991005       30.6381842542
  C         4.5739748305       10.4205932500       30.3742752092
  H        -3.4888168822        8.9915812742       26.3326245198
  H        -4.0860784654        8.5718489432       27.8103650137
  C        -4.9529994879       10.3729585280       26.9167276597
  N        -1.2293264282       16.6374490348       30.7622587951
  C        -1.6774759893       16.3193713662       32.9827144665
  C        -1.9242096755       14.1295078215       34.0949340570
  H        -1.5571549151       12.4179652204       32.9414817801
  H         7.8816554959       12.0116273138       17.9045345801
  H         6.3882662194       12.6829791027       17.9427228197
  H         7.7222655145       13.7825166341       18.1549999265
  S         4.0800297586        9.9110127419       14.5088321979
  C         3.6800537921        7.3553399942       13.6034162563
  H         4.7739694988       11.3114328708       29.8014645037
  H         4.4966686046       10.6502642101       31.4468453292
  C         5.7655707770        9.5206839410       30.1464851664
  H        -4.6105295585       11.1308378645       26.1958331763
  H        -5.2677808424       10.9262794514       27.8510794562
  C        -6.1251493359        9.6870228062       26.1992654411
  S        -1.3541398031       18.1340139512       31.3545802489
  N        -1.6081882735       17.7503675562       32.8886786547
  C        -2.0546321712       15.6114145657       34.1603828321
  H        -2.1350828518       13.5514625621       34.9683809232
  C         4.2528399455        9.3558797593       12.8586056024
  N         3.9830015165        8.0695584727       12.5201793683
  O         3.5651784820        6.1728368593       13.6863775188
  H         6.6056658975       10.1340964931       29.9273576455
  H         5.6017778475        8.8653031559       29.2811228757
  C         6.0145997194        8.5788744708       31.3304320488
  H        -5.7883277777        8.9018906252       25.5416479259
  H        -6.7466761644        9.3014470061       26.9891916639
  C        -6.7872844811       10.7325024174       25.2821069671
  C        -2.3192622725       16.4111271189       35.3453840490
  S         4.7444975810       10.4604585370       11.5969779784
  C         4.0657983170        7.4775512317       11.1678701284
  H         6.7088237705        9.0448103130       31.9829490205
  H         5.1065501850        8.2940276585       31.7995727598
  C         6.5983234286        7.2672227809       30.8272652525
  H        -6.1700681441       10.9942942265       24.4574407509
  H        -6.7685106150       11.7161999917       25.7579645398
  C        -8.1738439656       10.2158082623       24.8639355243
  H        -1.9041168515       17.3977813765       35.2946143870
  C        -2.8759093739       16.0953015943       36.5351514829
  H         4.5637323052        8.1902203432       10.4983214979
  H         4.6704717385        6.5839160017       11.2368339451
  C         2.7408271976        7.0355308645       10.5690735533
  H         7.6507315725        7.4421544428       30.5360984358
  H         6.0676726258        6.8463484444       29.9208806196
  C         6.6127770771        6.2117913141       32.0343243748
  H        -8.5201600751       10.9082700326       24.0871068716
  H        -8.2382586717        9.1303424368       24.5226419835
  C        -9.1658756905       10.4237443164       25.9682564004
  S        -3.4534156632       14.5749623102       37.0708444598
  C        -2.9689622195       17.2657361599       37.4510087697
  H         2.7425518734        7.2708471376        9.4744951422
  H         2.6592631479        5.9610978078       10.4971000606
  H         1.8195294618        7.2629748118       11.1277339257
  H         6.0609594560        6.5299438829       32.9677453132
  H         7.6342097398        5.9506711756       32.2497155531
  H         6.1101276137        5.2372248916       31.7484082030
  H        -8.9069838739        9.7236051327       26.7654609817
  H       -10.1419528702       10.1100431699       25.6703657292
  H        -9.2645710825       11.3783144404       26.3425792840
  C        -3.8135069544       15.4440354818       38.5979065998
  N        -3.5573193290       16.7548141829       38.5861495431
  O        -2.6770152792       18.3998877575       37.2491454797
  S        -4.3104671508       14.7222673386       40.0855868162
  C        -3.6586356113       17.5496023346       39.8274914002
  H        -3.6509976464       18.5766043593       39.5194161440
  H        -4.6527020400       17.3698892904       40.2409145677
  C        -2.4866721714       17.2830364465       40.7887347000
  H        -1.8173823807       16.4933813365       40.5721098662
  H        -2.0718926973       18.2416289198       41.1164937679
  H        -2.9248457396       16.8649935508       41.6724059290
