352
i=
  H         2.6794079764        4.2522028751       12.2851163494
  C         3.0494933156        3.2451757946       12.2160507508
  H         2.5244904322        2.7417912077       13.0183930054
  C         2.7168789791        2.6369092340       10.8242763061
  C         4.5744641146        3.2912433902       12.4889347110
  C         3.7574428318        2.8476566022        9.6786897315
  H         1.7757523741        3.0400008712       10.3284585942
  H         2.6776247763        1.6010145220       10.9874855581
  H         5.1077891047        3.8774205279       11.7336005739
  H         4.8049103082        2.2551895142       12.5376880687
  H         4.8778254868        3.5918209094       13.5028754423
  C         4.6976077985        1.6852991632        9.4514783737
  H         3.1216108490        2.8340772877        8.7632859252
  H         4.1004922714        3.8689336200        9.7432735525
  C         5.5296857700        1.9089046581        8.2148268160
  H         4.1642460057        0.8050781948        9.2225025215
  H         5.1725669232        1.3197862721       10.3450458539
  C         6.8240477978        2.7159249528        8.4847960888
  H         4.9420781502        2.3145376862        7.4164318147
  H         5.7552189988        1.0226014934        7.6005867836
  C         7.9318570357        1.8539000316        9.1050079099
  H         7.2779866547        3.1454720157        7.6086829992
  H         6.5709981602        3.4831202345        9.1633021791
  C         9.2307333388        2.6713099586        9.3652164041
  H         8.1831654713        0.9952195768        8.4474959110
  H         7.5104868133        1.5089576086       10.0192469909
  C         8.8838254741        3.9823262703       10.0671492446
  C         9.5677831370        3.3801965006        8.0981831804
  C        10.4559479387        1.9571049493       10.0773555031
  C         8.9399698566        5.0630777374        9.2214107873
  C         8.4244444248        4.4665961282       11.3322996740
  C         9.3925457351        4.7080161148        7.9323116962
  C        10.0122056009        2.7598260401        6.9983512672
  H        10.0169015650        1.5110780552       10.9640183038
  H        10.7091169780        1.0667387383        9.4116642499
  C        11.6279451907        2.8587444424       10.4498416271
  S         8.4110544650        6.6300694557        9.8451412910
  C         8.1444639148        5.8032428926       11.3836838748
  H         8.4077279003        3.8577184741       12.1215079043
  C         9.5903468676        5.2782548354        6.6976861782
  H        10.0039800177        1.6671322511        6.9979490283
  C        10.2487577291        3.2498000047        5.7836117128
  H        11.3848092841        3.9601861748       10.5327987176
  H        12.3037599205        2.8475947337        9.6144185789
  C        12.3560892942        2.2918826815       11.6601515511
  C         7.7269335642        6.4835245126       12.6120385292
  C        10.0457364985        4.5783755204        5.5859292838
  H         9.5825366064        6.3166763586        6.6122570806
  C        10.6717141242        2.8420969250        4.5557561008
  H        13.3158640582        2.8360187558       11.7355957568
  H        12.6467470097        1.2837757654       11.4022283900
  C        11.6141541290        2.4001279372       13.0226379297
  C         7.7305986436        7.9054974981       12.8720438429
  C         7.2111010452        5.6911492117       13.7993064734
  C        10.4814876910        5.2512463202        4.3031959932
  C        10.8851761158        3.9469460543        3.7302730866
  S        11.0236072542        1.3553354312        3.7741849459
  H        11.2873948142        3.3943791248       13.1741671673
  H        10.6468525092        1.8725323135       13.0690327257
  C        12.5199763664        2.1040226393       14.2479919443
  N         8.0696013223        8.7901246587       11.8722716822
  C         7.3320947624        8.4913238786       14.0511207116
  C         6.7500934055        6.2944376038       14.9830577901
  H         7.1934044881        4.6107252019       13.7360088422
  C        11.6930634987        6.2305282120        4.5359951008
  C         9.3733146948        5.7996476527        3.4041380038
  C        11.3446660762        3.5741008213        2.4364449178
  C        11.3386470566        2.2054907064        2.3082679515
  H        13.3770486757        2.7507026787       14.1593214371
  H        12.7871850438        1.0561269859       14.1248109392
  C        11.9887970942        2.3702374080       15.5902580250
  S         7.8802790748       10.2987975797       12.4560287572
  N         7.3978497715        9.8830530012       13.9751340834
  C         6.9002430567        7.7582095319       15.1797244755
  H         6.4453355766        5.7400491760       15.8728885914
  H        11.4778373532        7.1752908509        5.0930848281
  H        12.0569275555        6.5841694040        3.5963050645
  C        12.9013588383        5.4898976441        5.2441572706
  H         8.8588799268        6.6400513384        3.8764584426
  H         9.8812671779        6.1702161911        2.5094538090
  C         8.3312260207        4.8200749978        2.9535437222
  H        11.6065438448        4.2787408026        1.7597425299
  C        11.6826033771        1.4138777550        1.0479019747
  H        11.5385201262        3.3204486282       15.5370695274
  H        11.3770587025        1.5598043618       15.9499361509
  C        13.1773503364        2.4165577704       16.5979359264
  C         6.7313452735        8.4427431284       16.4044279031
  H        12.5725226113        4.7077015842        5.9201026886
  H        13.4696614662        5.0148741967        4.4887917907
  C        13.8744042676        6.3970182847        5.9157382641
  H         8.2104296854        4.1691004243        3.7877477423
  H         8.6993206283        4.3750539156        2.0201661758
  C         6.9535130407        5.4404007304        2.4515544576
  C        11.7084305371       -0.0167609546        0.8965663425
  C        11.9339443603        2.1102029972       -0.2090793822
  H        13.9580626917        3.0694603673       16.2477009718
  H        13.4900499400        1.3569924952       16.6661220426
  C        12.8410344311        2.8138294710       17.9950154359
  H         7.0526364969        9.5040678032       16.3225435121
  C         6.3270735258        8.1094493127       17.6907727089
  H        13.3086518322        6.8464409372        6.7736553514
  H        14.1999968380        7.0974162147        5.1406919011
  C        15.0643071910        5.7111411949        6.7010570311
  H         6.2672911840        4.5885411386        2.5169636186
  H         6.5513636017        6.1254516101        3.1384884654
  C         7.0231933746        6.0389870587        0.9804167927
  N        11.4155099051       -0.8681466136        1.9411041862
  C        11.9585577365       -0.6623291848       -0.2817189271
  C        12.2594467224        1.4218296367       -1.3758039079
  H        11.8725271122        3.2188447761       -0.2393605762
  H        13.7318890527        2.5581695387       18.5913165156
  H        11.9535820128        2.2413573353       18.2152434339
  H        12.5447572932        3.8447807126       17.9705541657
  S         5.8410294193        6.6074423047       18.2479617305
  C         6.3857500700        9.2138691380       18.7078644110
  H        15.1351799657        6.2644369466        7.6090255537
  H        14.8883280349        4.6409503792        6.9702405966
  C        16.4039951351        5.7628831792        6.0352711073
  H         7.1524016907        5.2886705746        0.1998649990
  H         7.9048720102        6.6824161775        0.8952665872
  C         5.8028921462        6.8084640089        0.5976851353
  S        11.5324337328       -2.4161096267        1.4214565653
  N        11.9122563239       -2.0920829815       -0.1469002559
  C        12.2354308044       -0.0614143807       -1.4931359312
  H        12.4799845739        1.9880989213       -2.2378223231
  C         5.6728766739        7.4330740038       19.7705186480
  N         5.9409285267        8.7469411391       19.8009034616
  O         6.6464542851       10.3139119118       18.4379224490
  H        16.2610962530        5.4035622242        5.0280636456
  H        16.7308096398        6.8080953000        5.9127433258
  C        17.4660626828        4.9869141947        6.8878086380
  H         5.7952742145        7.0702355687       -0.4559847879
  H         4.8953395230        6.1449831936        0.7492530053
  C         5.6244389846        8.1344576069        1.3710527601
  C        12.5182708445       -0.8868680818       -2.5902865378
  S         5.0583993061        6.6348344720       21.1656086995
  C         5.7798701354        9.4947388900       20.9984714854
  H        16.9375566510        4.3473740062        7.5390836675
  H        18.0285823183        4.3190874266        6.2043638724
  C        18.4415416908        5.9120996207        7.6637407684
  H         6.0082675771        8.8840580047        0.6490406722
  H         6.2226931742        8.1615884551        2.1995734268
  C         4.1470696374        8.5345965568        1.5866631317
  H        12.0317262615       -1.8615961657       -2.5486286005
  C        13.1085036936       -0.6475355149       -3.8510878496
  H         5.0059542777        9.0086637940       21.5938678362
  H         5.3508939326       10.4911830828       20.8637435046
  C         7.1105410849        9.6225907781       21.6871484868
  H        18.9476198943        5.3358655853        8.4966820250
  H        17.9721170561        6.8197480391        8.0738385610
  C        19.5667027383        6.2537336471        6.7187200002
  H         3.8803585872        9.3093933816        0.8507333151
  H         3.6155938183        7.6665821985        1.3506863289
  C         3.8285827803        8.9638441483        3.0324900517
  S        13.7459769658        0.8214013255       -4.3682979754
  C        13.1088702883       -1.7431645037       -4.9449149070
  H         7.8376217169        9.7095655010       20.9197464790
  H         7.2881071546        8.7829070433       22.3700392468
  H         7.2408232325       10.5322184459       22.2654143500
  H        19.1815819189        6.6510777059        5.8366969767
  H        20.0939004241        7.0934622081        7.1923218284
  H        20.3916165710        5.5152966575        6.5051152123
  H         4.3172915698        8.2750430652        3.7683710626
  H         4.2183308191        9.9384475179        3.2914659366
  H         2.7792590543        9.0600717387        3.2593432378
  C        14.0846414860        0.0473644064       -5.9609783435
  N        13.7541807670       -1.2828080292       -6.0018343088
  O        12.5828309962       -2.8734407105       -4.8627276463
  S        14.9284207417        0.6664294193       -7.3448158909
  C        13.9168881657       -2.1581255883       -7.1858241689
  H        14.0060292828       -3.2168307606       -7.0058763298
  H        14.8501885845       -1.9658752050       -7.7235380737
  C        12.7342810726       -2.0607165905       -8.1485857269
  H        12.6373563196       -1.0347004487       -8.4470902443
  H        11.8264296205       -2.5040917012       -7.6200817838
  H        12.8832568703       -2.7699823575       -9.0417443627
  H        -1.3331470545       13.3041520855       17.1532364320
  C        -1.8454145582       14.0980003497       16.6630368508
  H        -1.0092497170       14.6966688318       16.2626137126
  C        -2.7154092386       14.9086780446       17.6807473951
  C        -2.6292909556       13.6506297703       15.4270497086
  C        -3.4021897178       14.0091048321       18.7395694963
  H        -2.1284462145       15.6529725634       18.1942007929
  H        -3.4465536274       15.4695830624       17.0837748352
  H        -2.4722369635       12.5926542247       15.2961272981
  H        -3.6937570177       13.9434561207       15.3749166330
  H        -2.1458959877       14.1555269057       14.5634660785
  C        -2.2853805882       13.5801572853       19.6794747650
  H        -3.9206248555       13.2149833313       18.2706981147
  H        -4.1133771972       14.5918109646       19.3853324147
  C        -2.6020851069       13.5667534233       21.2190856379
  H        -1.9261233935       12.6395037562       19.3563484354
  H        -1.4827062873       14.2367269903       19.5622125324
  C        -1.6076868363       12.8821345436       22.1043542385
  H        -3.5666083931       13.1796877828       21.4659793469
  H        -2.6838670886       14.6553255065       21.5559520008
  C        -0.4517951925       13.8534756872       22.5445164028
  H        -2.1921711159       12.4875821869       22.9958298484
  H        -1.2551712865       12.0380861826       21.5503952698
  C         0.7646215094       13.1538304898       23.2631494966
  H        -0.2049521550       14.4842424011       21.6987201401
  H        -0.9389006638       14.5845332127       23.3117832058
  C         1.0639698364       11.7997027940       22.6152356130
  C         0.4109126759       12.4256136271       24.5818572757
  C         1.9667112945       14.1736762041       23.4300727290
  C         0.8652759047       10.6880713810       23.3997090226
  C         1.3544836927       11.4525928002       21.3208945435
  C         0.4406930720       11.0321854398       24.6628276070
  C        -0.0812886334       13.0385736115       25.7879703400
  H         2.1362287529       14.7034908045       22.4785832341
  H         1.7354679335       14.9085205686       24.2008738486
  C         3.3031178573       13.5282676086       23.9658957859
  S         1.2079159972        9.1684913250       22.6647579100
  C         1.6580579708       10.1074386353       21.2638793620
  H         1.4258363168       12.2589710936       20.6131869612
  C         0.1411785370       10.4064339738       25.8514878650
  H        -0.1960183620       14.1511905427       25.7337969686
  C        -0.4446860383       12.3511778625       26.9348396780
  H         3.5540291900       12.6432190545       23.4149225415
  H         3.3204136336       13.2201601852       24.9884306715
  C         4.5272653687       14.4191591621       23.9388270882
  C         2.2035365044        9.4120181538       20.0308936253
  C        -0.4078930200       11.0270724588       26.9718760626
  H         0.2442278325        9.3470683835       25.9290303035
  C        -0.8999113351       12.6783539846       28.1911819626
  H         5.2985554944       13.8437948269       24.4808681174
  H         4.3177635348       15.3085650981       24.5099900563
  C         4.9333229105       14.7480568175       22.5164459757
  C         2.0476053275        8.0125632237       19.6252215436
  C         2.6261112776       10.3511275630       18.9429701253
  C        -0.7304558467       10.2590891573       28.2822787039
  C        -1.0335080406       11.5836025993       29.0206489485
  S        -1.3393336364       14.1499084627       29.0367410327
  H         5.5280635419       15.6537421469       22.5691196896
  H         4.1236829888       15.0007956481       21.8620677955
  C         5.8033551033       13.6412072305       21.8987612689
  N         1.6909766258        7.1158502925       20.5943491650
  C         2.4653840095        7.5359500488       18.4152255927
  C         2.9553360441        9.7920817469       17.6697127439
  H         2.8471775308       11.3681195442       19.0503677523
  C         0.4132578261        9.4396401511       28.9606289675
  C        -1.9653124982        9.3386564193       28.1909263590
  C        -1.5043297016       11.9106594421       30.2784408795
  C        -1.5952625465       13.2517352339       30.4533310223
  H         6.7880230784       13.5500303106       22.4087934841
  H         5.3103321585       12.6603704343       22.0859527654
  C         5.9393661738       13.9219583713       20.3632284572
  S         1.7569976324        5.7043091332       19.8579955932
  N         2.2170606029        6.1540317709       18.3841153494
  C         2.9065766734        8.3314280294       17.3794244742
  H         3.3167258997       10.5020617543       16.9478230135
  H         0.7113381743        8.6960610937       28.2004643311
  H         0.0966519533        8.8598960783       29.8710642375
  C         1.6816375206       10.2154126913       29.2045712490
  H        -1.7574832637        8.4941959275       27.5065015614
  H        -2.2647243245        8.9654974575       29.2142037632
  C        -3.2041485167       10.1320128613       27.6540397161
  H        -1.7144590746       11.1106066575       30.8972529912
  C        -2.0352288686       13.9045704124       31.7420184636
  H         5.7412187354       14.9533861520       20.1787971307
  H         5.2295330931       13.3586769202       19.8320910050
  C         7.3307022377       13.6269412477       19.8871998730
  C         3.1264068138        7.7552203193       16.0931616433
  H         2.0579740214       10.5211315736       28.2290597325
  H         1.5002011241       11.0654253294       29.7999302573
  C         2.6328237048        9.3166145950       29.9137816957
  H        -2.9870739140       10.7777010021       26.7784355963
  H        -3.5531737152       10.7887506427       28.4314455864
  C        -4.4305991212        9.3551889011       27.3616592619
  C        -2.0884778690       15.3216803158       31.9794699878
  C        -2.3347926085       13.0751375651       32.9346509701
  H         7.9558645469       14.3319778890       20.4015661254
  H         7.6484830451       12.6265155599       20.1621862213
  C         7.4560842096       13.8867068970       18.3760576167
  H         3.1589684007        6.6696042964       16.0254944052
  C         3.5699277776        8.3035608970       14.9199546494
  H         3.0847790454        8.7565026551       29.0714237392
  H         2.2364325192        8.5470552220       30.5613910900
  C         3.8014106450       10.1884922121       30.5981061111
  H        -4.2000809435        8.6430239860       26.5139031783
  H        -4.4453233753        8.6544157264       28.2032591852
  C        -5.8345688296       10.0541796105       27.2215421816
  N        -1.9126998460       16.2972122154       31.0189645778
  C        -2.4004203676       15.8493012816       33.2258672645
  C        -2.5636484434       13.6371811159       34.1783943674
  H        -2.4035651674       12.0515740188       32.7587161345
  H         7.8291106507       14.9688901702       18.2450965166
  H         8.1468903295       13.2238294157       17.9451015360
  H         6.5044987651       13.7927137280       17.8083354597
  S         3.8878332597        9.9072030177       14.5254171186
  C         3.6223930117        7.2879284509       13.8190854238
  H         3.9993546945       11.1720583733       30.1618860620
  H         3.5002734850       10.4208367842       31.6538362154
  C         5.1695328259        9.5247553755       30.5772017677
  H        -5.9193105964       10.7233263083       28.1333261539
  H        -6.6119154065        9.3774696478       26.9291803416
  C        -5.7332342212       10.8945050098       25.9733785360
  S        -2.0602969548       17.8070575350       31.7050952565
  N        -2.3708124799       17.2815561444       33.2187430426
  C        -2.6236997422       15.1158205434       34.4183066310
  H        -2.6322582136       12.9883124896       34.9827632218
  C         4.1782837973        9.3129110111       12.8886835281
  N         4.0050713561        7.9538042175       12.7258597140
  O         3.4847902375        6.0528618556       13.9378168943
  H         5.9028497451       10.0573619195       31.1433461676
  H         5.6059680767        9.6892427192       29.5449554184
  C         5.2274366953        8.0949124216       30.9854965939
  H        -4.8836376798       11.5566337645       26.0121592580
  H        -5.4727679748       10.1556934512       25.1790791736
  C        -6.9176247161       11.7477427080       25.5315896324
  C        -2.9969695591       15.8170721565       35.5543822600
  S         4.6936481983       10.1782133728       11.4797504345
  C         4.1792994316        7.2647392516       11.3868770580
  H         5.4740160468        8.2278951161       32.0227832773
  H         4.1645054564        7.7040050742       31.0749430922
  C         6.1676065025        7.1780910448       30.1813863298
  H        -6.4169879545       12.2981448348       24.7083575005
  H        -7.0688900742       12.4979016501       26.2702037562
  C        -8.1840531472       10.8337462135       25.2217500049
  H        -2.7214431534       16.8246961223       35.6322469098
  C        -3.5521479785       15.4172957003       36.7475877985
  H         4.8744015725        7.8222204223       10.7611275875
  H         4.5848466705        6.2572152772       11.5766507956
  C         2.7833874533        7.0882157848       10.7085173423
  H         7.1139837886        7.6675293050       30.0370484308
  H         5.8342674646        7.0683379897       29.1808328622
  C         6.3704658586        5.8944553419       30.9519809211
  H        -8.5534682051       11.1389207052       24.2410170795
  H        -7.9528028991        9.7953779809       25.2767731049
  C        -9.3251169828       10.9843636467       26.1676683291
  S        -4.3251004772       13.9121787890       37.0581969359
  C        -3.5297576138       16.3481001176       37.8612704278
  H         2.2683603478        8.0400389955       10.3608035426
  H         2.8875453949        6.5300804466        9.7184967646
  H         2.1525846513        6.3724824641       11.3188898155
  H         7.0925078505        6.1283540415       31.7931608526
  H         6.9241590682        5.0974835310       30.3852506463
  H         5.4306201326        5.4822884575       31.3037950093
  H        -9.5161665618       12.0554433489       26.0145558196
  H        -9.1046974803       10.9318982487       27.2189423192
  H       -10.0773892499       10.1841171997       25.8908522169
  C        -4.6375964897       14.5494516162       38.6509233720
  N        -4.2517020638       15.8165191698       38.8513314256
  O        -2.9786616020       17.4883552812       37.8451701848
  S        -5.5472122228       13.7937112596       39.9194091482
  C        -4.4303257245       16.6706558040       40.0202509342
  H        -4.6236927847       17.6813362324       39.6521301784
  H        -5.3089817649       16.4367828161       40.5383101932
  C        -3.1850850725       16.8431643766       40.9008434748
  H        -2.2085101778       16.7531917907       40.4075691693
  H        -3.2007787709       17.8498512068       41.2492607677
  H        -3.2381737483       16.1872655005       41.7971897948
