352
i=
  H         4.4698121326        1.7535367442       12.6126126068
  C         3.7048979099        2.4603107380       12.7427556466
  H         4.2800269556        3.3691743603       12.7369417623
  C         2.8665006148        2.3619341640       11.4587012817
  C         3.0317287076        2.3034716366       14.0609795011
  C         3.7293054631        2.4761785084       10.1240237428
  H         2.1665989013        3.2377582676       11.4488028067
  H         2.2090926433        1.4206387163       11.5704537776
  H         2.6283560928        1.3029183824       14.1742813593
  H         2.3974628573        3.0954012810       14.3995564408
  H         3.8049364318        2.1855930709       14.7989831250
  C         4.5596604744        1.2210857099        9.6693835171
  H         2.9397473209        2.6588914970        9.4043104926
  H         4.3674883198        3.3645932168       10.1381383342
  C         5.3496360182        1.3927006703        8.3606746138
  H         3.9524277033        0.3286790492        9.6542954031
  H         5.2889906271        1.0030611568       10.4491500592
  C         6.5192175033        2.3196775798        8.4157995978
  H         4.8354088398        1.7003914571        7.4826144771
  H         5.6850552482        0.4509847869        7.9110250101
  C         7.7226521952        1.5714899132        9.0283672410
  H         6.6838680358        2.6922038756        7.4411743590
  H         6.2027911013        3.1461357818        8.9602924805
  C         8.8908000979        2.5208714368        9.2394208343
  H         7.9698315491        0.7664779558        8.3295291371
  H         7.5308344067        1.0429235518        9.9412250699
  C         8.4958464121        3.8333555831       10.0020458850
  C         9.2547919861        3.2102252628        7.9912343465
  C        10.1555599587        1.7987681079        9.8043832175
  C         8.7361396487        4.9240145263        9.1619190226
  C         8.0322141133        4.2193634608       11.2889223389
  C         9.2239994780        4.5868305775        7.9522794099
  C         9.7291790810        2.5664450911        6.8174964230
  H         9.8333656986        1.2014696371       10.6371686630
  H        10.5006190403        1.1718032475        8.9425559209
  C        11.3755061037        2.6287749493       10.2196008713
  S         8.4317252343        6.3984413675        9.9431719913
  C         8.0218564604        5.5562549998       11.3909689952
  H         7.8213532773        3.4658394103       12.0186988072
  C         9.5811388054        5.2482816300        6.8202220093
  H         9.8310757748        1.5087068846        6.7646640789
  C        10.1961601719        3.2581736380        5.7748199393
  H        10.9946213434        3.4712855760       10.7945286372
  H        11.8450292094        3.1639632483        9.3800075037
  C        12.3740367236        1.7343273419       10.9289055822
  C         7.5992589841        6.2108776519       12.6777753339
  C        10.1130744614        4.6108540904        5.6721383299
  H         9.5889672471        6.2978378787        6.8669807209
  C        10.6208976896        2.8748321515        4.5770895626
  H        13.3054627406        2.3526595600       11.0655731752
  H        12.7495955824        0.9308168219       10.2625548253
  C        11.9081507301        1.2485751560       12.3393763387
  C         7.5506700948        7.6408723351       12.9135990922
  C         7.1064284833        5.4211130280       13.8090176913
  C        10.5746680633        5.3413934883        4.4068393703
  C        10.8959607527        3.9527313416        3.7467812946
  S        10.7521473699        1.3782925637        3.7136578835
  H        11.1182262800        0.4823564478       12.2931018884
  H        12.8212919061        0.7410041459       12.6437121149
  C        11.6872323799        2.3659838979       13.3481901051
  N         8.0793919281        8.5457337179       11.9402088142
  C         7.1806446223        8.2139238588       14.0926704494
  C         6.7155990583        6.0459861536       14.9895741850
  H         6.8124513304        4.3836413954       13.6452569161
  C        11.8122414346        6.1290526027        4.7868668368
  C         9.4757842771        6.1718733713        3.6736224555
  C        11.2711060235        3.5504363753        2.4016784665
  C        11.2463513189        2.2234192854        2.2743462803
  H        10.7645357842        2.8735124944       13.2104223143
  H        12.4791650068        3.1250628953       13.3785070137
  C        11.5997200358        1.6574136023       14.7813186345
  S         8.0698561565       10.0234263780       12.6238380896
  N         7.3539508983        9.5865098887       14.0805780694
  C         6.7792170742        7.5221989016       15.1878561995
  H         6.4568317943        5.4262680993       15.8247205602
  H        11.5014931425        6.7934804706        5.6020624634
  H        12.0164329995        6.6668846604        3.8383836939
  C        12.8895839415        5.2175640437        5.4821413350
  H         9.1225509260        6.9097294320        4.4086006413
  H         9.9463588640        6.7148362733        2.9429425943
  C         8.2933297290        5.3984714993        3.1277980727
  H        11.5076725307        4.3030941378        1.7213182615
  C        11.4569574794        1.5195145657        0.9764878284
  H        10.5235131196        1.6835494710       15.1320957586
  H        11.8675771224        0.5897563247       14.5753003462
  C        12.5570221588        2.3822999571       15.8144702670
  C         6.6119500306        8.2345084224       16.4193665232
  H        12.4217910321        4.7219611416        6.3798342605
  H        13.1469916193        4.3788165498        4.8117844074
  C        14.0921592660        6.0622393793        5.8290466002
  H         7.7905266502        4.8072933352        3.9582201048
  H         8.5273077628        4.6492206899        2.3717980356
  C         7.1571104328        6.2962191939        2.6381598873
  C        11.5474141686        0.1213482385        0.8684510791
  C        11.5732845437        2.2865344403       -0.2817742176
  H        12.2098368277        3.4010896915       15.7546480665
  H        13.6060965445        2.4238892992       15.3314236201
  C        12.5802980960        1.8962009252       17.2737744298
  H         6.9099607146        9.2529848753       16.3883892552
  C         6.4651256506        7.8391762748       17.7338307435
  H        13.6403407253        6.8524275755        6.4023308482
  H        14.4736057410        6.5023072648        4.9488166623
  C        15.1448289071        5.2808542002        6.5935091908
  H         6.8534611943        6.9003799480        3.5017828203
  H         7.4992890172        6.9849469767        1.8641678629
  C         6.1142090549        5.3933361661        2.0609597651
  N        11.4253368122       -0.8119722915        1.8894237095
  C        11.9582904378       -0.5034034604       -0.2616516908
  C        12.0473334975        1.6972417952       -1.4671197006
  H        11.6254700294        3.3769719806       -0.2314413994
  H        13.2043011376        1.1179722674       17.4254580228
  H        11.6355598135        1.6182795776       17.6127236442
  H        12.8786191959        2.7673327135       17.8754001126
  S         6.2153187968        6.2719128170       18.3989042053
  C         6.4867713448        8.9008033642       18.8215294159
  H        15.2231667938        5.5851442767        7.6156357207
  H        14.7622203734        4.3260341994        6.6233714409
  C        16.5406760614        5.3855411338        5.9887511178
  H         6.4203537159        4.3200872011        2.0784501992
  H         5.9717114242        5.6707011992        1.0433276685
  C         4.7237273657        5.6701993589        2.5896411277
  S        11.5227247920       -2.3237668834        1.2497747200
  N        11.9739653272       -1.9232812776       -0.1880367635
  C        12.2799767089        0.2284531270       -1.4674877875
  H        12.2422657770        2.2351587539       -2.4218109453
  C         6.1773713607        7.0369732159       19.9685962585
  N         6.2236327801        8.3389289914       19.9891849634
  O         6.7899720324       10.0514043509       18.6073348037
  H        16.4268002862        4.8504141933        5.0750341783
  H        16.7299794731        6.4573760819        5.7314624832
  C        17.6554720417        4.8043687320        6.8648763120
  H         3.9205836941        5.2772009440        1.9843910314
  H         4.6422257170        5.1292222143        3.6284455018
  C         4.3183895115        7.2494611467        2.7456243487
  C        12.7569021243       -0.5105893028       -2.6067563892
  S         5.7811945333        6.2650612326       21.5584154400
  C         6.2180530277        9.1025896539       21.1941246209
  H        17.3979207154        4.8484292612        7.9174332403
  H        17.7385774341        3.6903438211        6.6355527804
  C        19.0405099498        5.4780205217        6.7129680299
  H         5.1502653600        7.7793143686        3.2400702480
  H         3.3941439372        7.4093729950        3.4240138210
  C         4.0970533732        8.0411051889        1.4791549293
  H        12.8039594901       -1.5908317935       -2.4036102501
  C        13.1132551830       -0.2276317204       -3.8690590601
  H         5.4591661760        8.7540573200       21.8779240991
  H         5.9189748545       10.0866584735       20.9054876823
  C         7.6742421427        9.1755862264       21.7951909412
  H        19.5697883906        5.0407455674        7.5242547638
  H        18.8697725152        6.4902911317        6.8626338803
  C        19.7659328335        5.2564230109        5.4182965255
  H         5.0895679201        8.1769824471        1.0660757530
  H         3.5242367351        7.5387983503        0.7106695616
  C         3.4651864258        9.3627265629        1.7029246784
  S        13.3647092961        1.2926425351       -4.5057224963
  C        13.3250533774       -1.2982123375       -4.7981434428
  H         7.7406961136        8.6033760962       22.8173333998
  H         7.8360500439       10.2065783904       22.0191507655
  H         8.2722731564        8.7092145647       21.0390743442
  H        19.2954640038        5.7522670431        4.5750636978
  H        20.8064151359        5.6730126550        5.4492419321
  H        19.8805370779        4.2270161680        5.1355367548
  H         4.0630652606        9.9340452351        2.3883938000
  H         3.2229726343        9.8551539984        0.7288259479
  H         2.5213407876        9.1930349723        2.2201707213
  C        13.8609242423        0.5830445615       -5.9684362873
  N        13.8710668487       -0.7837772683       -5.9012888530
  O        13.3183643427       -2.4688210321       -4.5113652323
  S        14.4777402655        1.4928923674       -7.2802793390
  C        14.3261642915       -1.6763727187       -6.9610594644
  H        14.4151176242       -2.7010419368       -6.5460539858
  H        15.3047726087       -1.4882188040       -7.4622398390
  C        13.2529961746       -1.6220815148       -8.0423167174
  H        12.3736558278       -0.9921081739       -7.9099052948
  H        12.7754800277       -2.5396404478       -8.1421049183
  H        13.6451242395       -1.4622631833       -9.0110985047
  H        -2.6832807850       15.3745788416       16.9596445625
  C        -2.6388241593       14.2600705302       16.7449350185
  H        -3.5441305550       13.7296932695       17.0982234017
  C        -1.4154724409       13.8059359149       17.5186145213
  C        -2.4414486066       14.0131044821       15.2462789295
  C        -1.2015722150       14.1746881914       18.9382124289
  H        -1.2269649017       12.7820533982       17.2926701768
  H        -0.6384700504       14.3391880519       16.9982496390
  H        -2.5599575885       13.0121950658       15.1022664820
  H        -3.1907098467       14.5468754698       14.7045385922
  H        -1.4631458163       14.2615293386       14.8347087029
  C        -1.6202099027       12.9819844215       19.7965245173
  H        -1.8167670150       15.0462460887       19.2215432075
  H        -0.1568864467       14.4623998045       19.1849945745
  C        -2.1341900500       13.4447897610       21.1984166678
  H        -2.5573283267       12.6506299430       19.3376151176
  H        -0.8700954999       12.2597157048       19.7968100232
  C        -1.1516197065       13.0127818703       22.3262398915
  H        -3.1302883989       13.0180966144       21.3615502760
  H        -2.3061837581       14.5096150319       21.1530214157
  C         0.1527651176       13.8700057761       22.3185708280
  H        -1.6173979386       13.1583757163       23.3003382214
  H        -0.8582059254       11.9442816217       22.2188515201
  C         1.3528389383       13.2388148615       23.0690824692
  H         0.5907592139       13.8853744670       21.3398134100
  H        -0.0876603972       14.7869165099       22.7909054025
  C         1.7690271551       11.9091226751       22.4382807304
  C         0.9398666804       12.5229650348       24.3873709833
  C         2.5371613901       14.1948153787       23.2734636103
  C         1.4801505173       10.7783692533       23.2184591471
  C         2.2953323679       11.4688109345       21.2004206039
  C         0.8954327016       11.1818514758       24.4219704023
  C         0.4978546401       13.1144248181       25.5230503611
  H         2.8356397075       14.6006566350       22.2737159734
  H         2.3205687057       15.0308913880       23.9156683465
  C         3.8148144782       13.5574565491       23.8029187014
  S         1.8984978225        9.2568188934       22.4101341916
  C         2.3784995662       10.0912455987       21.0436313569
  H         2.5592742711       12.1510992252       20.4426775951
  C         0.5553614715       10.5452535186       25.5639634323
  H         0.4318522958       14.1812798539       25.5816263318
  C         0.1403643566       12.4752621771       26.6606682703
  H         4.2008087942       12.8064457035       23.1068126663
  H         3.5818410364       12.9227746290       24.7104655136
  C         4.8524706251       14.5862522987       24.1373362337
  C         2.6227192706        9.3401808496       19.8115826893
  C         0.1312605573       11.1020916380       26.7045338048
  H         0.6189047526        9.4170037073       25.6061705087
  C        -0.2873786636       12.8507136460       27.9084638514
  H         5.6246785442       14.1884518488       24.8189104657
  H         4.4567268377       15.4931778814       24.6553576478
  C         5.6387965559       15.0217067206       22.8506342197
  C         2.6966941798        7.9532539510       19.5406843217
  C         3.2988833365       10.1630443810       18.7230813710
  C        -0.1259169343       10.4307878585       27.9742429328
  C        -0.4009460142       11.7417610855       28.7428710009
  S        -0.6048507889       14.3484195096       28.6407345644
  H         6.2295149282       15.9147625319       22.9747841743
  H         4.8493207555       15.2217834652       22.1470187192
  C         6.4495869768       13.9418052468       22.3008498496
  N         2.4203720195        6.9375162558       20.4750953757
  C         3.0225109721        7.3804800049       18.3237989069
  C         3.4567703554        9.5536411435       17.4459126284
  H         3.4921010068       11.2294585240       18.7056190760
  C         0.9832898046        9.5435264097       28.5871582966
  C        -1.4152168443        9.6534829993       27.9045912798
  C        -0.9106842262       12.1339098621       29.9581363656
  C        -1.0672393850       13.4952437710       30.1430447063
  H         7.5340600697       14.0721462927       22.4521204029
  H         6.2967027341       13.1224059273       22.9680679623
  C         6.1302453631       13.5770389551       20.7915439687
  S         2.4046720578        5.4946288982       19.6737935337
  N         3.0748745618        5.9753900541       18.3335386107
  C         3.3383276656        8.1096852340       17.2212232415
  H         3.7425818512       10.1654167966       16.6096114166
  H         1.3554842593        9.0222570059       27.7342979418
  H         0.4970491050        8.8475506061       29.2943310060
  C         2.1863938026       10.3129823734       29.1494863117
  H        -1.1739186503        8.8623501676       27.1688865874
  H        -1.6482024836        9.0369987230       28.7321239082
  C        -2.6271857974       10.4532392774       27.4411551723
  H        -0.9301976368       11.3611823492       30.8026522630
  C        -1.2212661663       14.1566035621       31.4864566170
  H         5.5443899581       14.4674334096       20.4025926531
  H         5.4998513085       12.7144952749       20.7602038446
  C         7.3832031289       13.3491802895       19.9046623037
  C         3.4228992279        7.4588697406       15.9427025740
  H         2.6928577442       10.9511335607       28.4188844776
  H         1.9407301019       11.0269124003       29.9563119210
  C         3.2778351941        9.4466824644       29.6547206645
  H        -2.4502264450       10.8247366965       26.3699752074
  H        -2.8323911779       11.3250764499       28.1202407717
  C        -3.9000299621        9.6483535535       27.3505616476
  C        -1.2919426798       15.5749036037       31.6857563390
  C        -1.4242109860       13.4104777489       32.7480101189
  H         7.9554603682       14.2908989594       19.9239394825
  H         8.0327696518       12.6042454012       20.3520993185
  C         7.0671971450       12.9967253441       18.5128974490
  H         3.0944094929        6.4213603265       16.0031576044
  C         3.6512793407        7.7713563683       14.6220062929
  H         3.9023158441        8.9371911057       28.9101785827
  H         2.7599777434        8.6664519352       30.2314989962
  C         4.0999701610       10.2223419154       30.7389739017
  H        -3.7967011482        8.8606077748       26.5965126003
  H        -4.1579652480        9.2299185310       28.3074095348
  C        -5.0703104851       10.5630017978       26.9500918131
  N        -1.0174793595       16.5232608517       30.6853526588
  C        -1.6779798365       16.1678750145       32.8752410247
  C        -1.7700545202       14.0219654582       33.9405846716
  H        -1.2642000656       12.3217436707       32.7652904202
  H         6.1036544224       12.6181529572       18.3870257126
  H         7.0459088090       13.9542435725       18.0005549638
  H         7.7693276651       12.2530046138       18.0985768411
  S         4.0902397226        9.3505555156       14.0266690353
  C         3.6388083160        6.6950155597       13.6643273429
  H         4.0295938837       11.3250281426       30.4425110504
  H         3.5928254580       10.0693464613       31.7021960660
  C         5.4978043354        9.7572264781       30.9236292651
  H        -4.6475270839       11.4731437274       26.5985813567
  H        -5.4254509123       10.9357043003       27.9287138144
  C        -6.1812217023       10.0162899214       25.9954145441
  S        -1.2084207919       18.0085741807       31.3439587697
  N        -1.7629038128       17.5476028740       32.7860525706
  C        -1.9130466927       15.5106611114       34.0528102675
  H        -1.9904119628       13.3607179508       34.7955770833
  C         4.2209500410        8.5429837663       12.4631392622
  N         4.0223294599        7.1873508875       12.4625182020
  O         3.5108740404        5.5192031946       13.9668236580
  H         5.9445123190       10.4375633200       31.6398892173
  H         5.9278747570        9.8017609161       29.9279249184
  C         5.6149199226        8.3354061933       31.4540914699
  H        -5.6922172090        9.8325322721       25.0903894499
  H        -6.6117531224        9.0628437490       26.4056265454
  C        -7.4626764565       10.9914016099       25.8681803420
  C        -2.2515479481       16.1925351577       35.2346146805
  S         4.6970751041        9.4872316613       11.0914530352
  C         3.9666537350        6.3985706725       11.2461937187
  H         6.1699383716        8.3214095342       32.3268547565
  H         4.5555653265        7.9638405806       31.6110994534
  C         6.3645641923        7.4682727160       30.4384738358
  H        -7.2406125043       11.9215826212       25.4581533196
  H        -7.7030649395       11.1577835909       26.9369043335
  C        -8.5559251389       10.2355472791       25.0843189724
  H        -1.7459656001       17.1732053142       35.0992084951
  C        -2.8866310192       15.9702381611       36.4313568283
  H         4.6797262772        6.8487619373       10.5194299676
  H         4.3840095260        5.4420121647       11.5063249788
  C         2.5381742640        6.4438530815       10.7379109737
  H         7.3430365056        7.9134068426       30.2216680119
  H         5.7305618398        7.4084310382       29.5272803733
  C         6.7658007296        6.1392478019       31.1195840954
  H        -8.8338512217       10.8041280453       24.2374801781
  H        -8.1914684352        9.2499856593       24.7455169656
  C        -9.8237948650        9.8871110029       25.8804717452
  S        -3.8557293322       14.5426267893       36.7911813973
  C        -2.8094960692       17.0212925655       37.5201413390
  H         2.3652036956        6.1965776376        9.6521600497
  H         1.8255985085        5.9546032789       11.3939622405
  H         2.2740320939        7.5341929230       10.8423920296
  H         5.8408049088        5.5269479582       31.2997027618
  H         7.1165929666        6.2441462245       32.1438486538
  H         7.3844093663        5.5010891827       30.5441131276
  H       -10.1300451657       10.6852212721       26.5004583039
  H        -9.5430921060        9.0386895270       26.4461356246
  H       -10.6520675098        9.5223720742       25.2709476936
  C        -4.2155631043       15.4783811748       38.2973841424
  N        -3.6161380589       16.6594056312       38.5388847603
  O        -2.1560233720       18.0450643421       37.3310122845
  S        -5.1261586736       14.7617119604       39.5532951142
  C        -3.5472589943       17.3594814952       39.8444539730
  H        -3.1950951769       18.3484652090       39.7005369997
  H        -4.5918894813       17.4517432781       40.1985348393
  C        -2.6540501758       16.6317426994       40.8603290747
  H        -1.9702433261       17.2203745833       41.4453437269
  H        -3.2740944711       16.1513827057       41.5849586612
  H        -2.0775320280       15.8241605003       40.3890799179
