352
i=
  H         4.8725087779        1.9266892774       12.4208825498
  C         4.1587086645        2.7331983650       12.3986705032
  H         4.6596807742        3.6557453952       12.5992789049
  C         3.4693377428        2.7860164463       11.0348356884
  C         3.2840262553        2.3924630022       13.6304568488
  C         4.6617559977        3.1113958723       10.0443083310
  H         2.8242004810        3.6876344029       10.9896593413
  H         2.9633107855        1.8395205540       10.7360739614
  H         2.7133994542        1.4971343921       13.3266135453
  H         2.4391195363        3.1480734450       13.8262559793
  H         3.9741819269        2.2356259807       14.4533948286
  C         4.9219470098        1.9178509717        9.0960391595
  H         4.3785446272        3.9178980968        9.3725059012
  H         5.5340789755        3.5272742097       10.5112183346
  C         5.6141580898        2.3962414340        7.8025666053
  H         3.9946210284        1.4530375400        8.7820770884
  H         5.3782318151        1.1134889031        9.6882082394
  C         7.0205801845        3.0904946971        8.0456958582
  H         4.9156686089        2.9651280171        7.1156308544
  H         5.7310107820        1.5985440635        7.1741017005
  C         8.0290855634        2.4069966125        8.8775919608
  H         7.4018185905        3.4255582532        7.1168208305
  H         6.7651462944        4.0781840741        8.4670693105
  C         9.3059924911        3.1668736704        9.0866275304
  H         8.1939094610        1.4214450858        8.4843262281
  H         7.5850772785        2.3337764985        9.8211433264
  C         8.9874877164        4.5127676845        9.7854101855
  C         9.8151181460        3.9297965420        7.8943969540
  C        10.4129974823        2.3911673019        9.8479393335
  C         9.3333363749        5.6394177350        9.0359547471
  C         8.4872453642        4.8187376966       11.0251893282
  C         9.9321198361        5.2806206505        7.8502731225
  C        10.1905229935        3.2981971897        6.6980905760
  H        10.0313544874        1.8148995421       10.6791520037
  H        10.8270618800        1.6480589272        9.1756934711
  C        11.5620940236        3.2689888513       10.3054954631
  S         9.1382206342        7.1123800364        9.8907948729
  C         8.5400432043        6.1668923901       11.2195267282
  H         8.2021755435        4.0428137450       11.7267588317
  C        10.4452125115        5.9011347944        6.7358284885
  H        10.0157131744        2.2638953894        6.6616824511
  C        10.7018261605        3.9473615059        5.5527993949
  H        11.2303630668        3.7794192438       11.2035366552
  H        11.9424639890        4.0684084169        9.6350813106
  C        12.6471532034        2.4071366834       10.8050559777
  C         8.0994273490        6.7776147325       12.5398865303
  C        10.7756250369        5.2931539670        5.5102820685
  H        10.3325096609        6.9415581049        6.6985590616
  C        10.9756094917        3.5021445432        4.2545299333
  H        13.5657671987        3.0227356608       10.7381572410
  H        12.9730184119        1.6403701119       10.1238745026
  C        12.5659944612        1.9316113271       12.2714863822
  C         8.0162968825        8.1388811581       12.8103618930
  C         7.4792012197        5.9090077894       13.5875591233
  C        11.0862895420        6.0165908843        4.1800588847
  C        11.2613685267        4.5947189577        3.4622315394
  S        11.1136593326        1.9370977659        3.5866210091
  H        11.5979486803        1.5801774350       12.6127391810
  H        13.2101640460        1.0712018682       12.3765860365
  C        13.1183682810        2.9842564867       13.3277228382
  N         8.4655350654        9.1118582353       11.9084351562
  C         7.5827324653        8.6955990371       13.9910695860
  C         6.9699318267        6.4463763387       14.7870729174
  H         7.3643542900        4.8288146102       13.4516139357
  C        12.4276621291        6.7665079247        4.3320989705
  C         9.9222132469        6.9272506290        3.6489491277
  C        11.5918540679        4.1226235999        2.2031441599
  C        11.6122262276        2.7152287025        2.0624403208
  H        12.3672270674        3.7259277489       13.5246753248
  H        13.9200404292        3.6157510235       12.9749075929
  C        13.7108986794        2.4701115925       14.6287633611
  S         8.1693219918       10.5718145407       12.5607066828
  N         7.6962374527       10.0710460489       13.9891899573
  C         7.1182063536        7.8865656081       15.0355307153
  H         6.7045464773        5.7858874011       15.5616016759
  H        12.3114060920        7.5334307022        5.1367272530
  H        12.5228942589        7.2357804514        3.3570696399
  C        13.6402268654        5.8187687210        4.5282824228
  H         9.7891624895        7.6582978538        4.4817362277
  H        10.2954771655        7.6051471147        2.8529167566
  C         8.6175016232        6.2617154151        3.1770918704
  H        11.6933113860        4.8372475810        1.3685621017
  C        11.8076361722        2.0077635023        0.7396186039
  H        14.4710202617        1.6855698707       14.4773978565
  H        14.2531500169        3.3401632409       14.9574622301
  C        12.5737465743        2.0530899150       15.6159102560
  C         6.8590873455        8.5306194861       16.2907904299
  H        13.4685316699        5.0198741002        5.2936055158
  H        13.9398023854        5.2678397108        3.7174532720
  C        14.8211470414        6.6744319103        4.9375688597
  H         8.1564994225        5.8200548850        4.0612194656
  H         8.8088501878        5.4036226202        2.5208995487
  C         7.6225937278        7.2043782349        2.4614038940
  C        11.8979075630        0.6132058723        0.5254923959
  C        11.9699514317        2.7087539919       -0.4996423909
  H        12.8425835163        1.0090923671       15.9444976547
  H        11.5698338902        2.0760563285       15.2344046170
  C        12.6163974000        2.7920669775       16.9634605976
  H         6.8576609817        9.6106457583       16.2071366336
  C         6.5320864248        8.1363461209       17.5237698272
  H        14.5832069922        7.2541988321        5.8562195058
  H        15.0373998442        7.4104379120        4.1611264440
  C        15.9564132950        5.7806623782        5.1739542073
  H         7.3930421393        8.0294337871        3.1433484198
  H         8.0309629388        7.7259311144        1.5627901433
  C         6.2382444945        6.5353566761        2.3326427800
  N        11.5599922474       -0.2906027221        1.4950827595
  C        12.1363060676       -0.0117506969       -0.6817105863
  C        12.2432829979        2.2010994869       -1.7852763642
  H        11.9055972861        3.7406815867       -0.4458751730
  H        13.6308365514        2.6610313091       17.4353467550
  H        11.8558356470        2.3641608380       17.6406044501
  H        12.4917272855        3.8651987179       16.9143374347
  S         6.3029841477        6.4927957791       17.9357936716
  C         6.4001603466        9.1267226346       18.6019381675
  H        15.7460538889        5.0975166821        6.0481111700
  H        16.0058622150        5.1672736231        4.2524353944
  C        17.3471557730        6.3797059432        5.4894215104
  H         5.8051436287        6.8034849405        3.3232871534
  H         6.3531837076        5.4145635700        2.3635971829
  C         5.2083437944        6.9771826911        1.2999153022
  S        11.7521439540       -1.8172987382        0.9279048117
  N        12.2787343355       -1.3861765996       -0.5679269742
  C        12.5278436244        0.7357849636       -1.8128920838
  H        12.3578518558        2.8194285802       -2.6202882202
  C         6.0482275646        7.1909656762       19.6050375863
  N         6.1340880127        8.5200722912       19.7920737004
  O         6.5881546848       10.3333943785       18.4708616930
  H        17.9840720807        5.9050551177        4.7207594543
  H        17.4237073247        7.3888131134        5.1296833446
  C        17.8423008106        6.4183086225        6.9338294966
  H         5.6321509063        6.8736167242        0.2718530143
  H         4.4033548918        6.2779709432        1.3040689184
  C         4.6855198581        8.3765390991        1.4980317739
  C        12.8956702304        0.0091281511       -2.9771539828
  S         5.7987947882        6.2089485223       20.9767564706
  C         6.0632968395        9.2107405645       21.0715054212
  H        17.3159540821        7.1149295370        7.5279287404
  H        17.6541446620        5.3691914676        7.3533578933
  C        19.3339436252        6.6318673853        6.8661844354
  H         5.1940982841        8.7556225092        2.3616406612
  H         3.6376263122        8.2931743802        1.7030903790
  C         4.9093773677        9.2789947512        0.2686269029
  H        12.7355913044       -1.0002577351       -2.9261068651
  C        13.4639778992        0.3922498858       -4.1335374262
  H         5.3983085072        8.6443921332       21.7941899670
  H         5.5131541068       10.1199195970       20.9328551929
  C         7.5022412519        9.3978502965       21.5611361302
  H        19.7946456628        6.6383346478        7.8474885009
  H        19.4015951155        7.6980801022        6.6697840634
  C        20.3572514658        5.9128658365        5.9731187094
  H         5.9554811742        9.1599215000        0.0211239622
  H         4.2651147725        9.0541787419       -0.5350038870
  C         4.6985305294       10.8062152046        0.5965725997
  S        14.0495501075        1.9515732991       -4.4443963711
  C        13.4491599224       -0.5539757347       -5.2298464184
  H         7.7625603006        8.5896400847       22.2294025811
  H         7.6580090816       10.3238816209       22.1250000355
  H         8.1724997888        9.2675198652       20.7028055619
  H        20.1052582285        4.8792124238        5.9171910427
  H        20.3630599243        6.3376395851        5.0357259143
  H        21.3776871826        6.0155946308        6.3656506658
  H         5.7450854559       11.1760650917        0.5059641501
  H         4.1187905767       11.3718804404       -0.1744134139
  H         4.2893115396       11.0301155046        1.5962384431
  C        14.2706315263        1.4196475725       -6.0792003733
  N        14.0742798198        0.0836666935       -6.2751211653
  O        13.1377444970       -1.7109592235       -5.1376996063
  S        15.1255142463        2.4181894481       -7.2300035347
  C        14.1593887550       -0.5975566367       -7.5130685243
  H        14.3195219092       -1.6061591095       -7.3251725025
  H        15.0846803358       -0.2487271093       -8.0444142105
  C        12.9031877385       -0.2707492419       -8.3509610049
  H        12.8307316638        0.7395568729       -8.2828473455
  H        11.9665900564       -0.7515937536       -7.9551859672
  H        13.0972192233       -0.4642744273       -9.3991656350
  H        -3.5361894245       14.7328220468       15.7503519292
  C        -3.1036092368       13.7190310693       15.7921349282
  H        -3.8671284484       12.9535398461       15.9224663613
  C        -2.0037421867       13.6436347309       16.8115821652
  C        -2.4211341444       13.3621545929       14.4848509030
  C        -2.4291067526       14.0653400878       18.2712522313
  H        -1.5181892726       12.6807368544       16.9387726304
  H        -1.1975630916       14.3628762385       16.6318170994
  H        -1.6558674327       14.1568156800       14.1839676052
  H        -1.9127744394       12.4195566829       14.6021413439
  H        -3.1253388446       13.2573070825       13.6082833209
  C        -1.5184398290       13.3357880673       19.2954496681
  H        -3.4705217192       13.7468606689       18.4400208636
  H        -2.3542690757       15.1068319848       18.3863718631
  C        -2.0411133512       13.4868553711       20.7400640962
  H        -1.5004756348       12.2694424068       19.1890764613
  H        -0.5149160723       13.7040032742       19.2162502421
  C        -1.0584452923       12.9149382345       21.7654223620
  H        -2.8897451463       12.8049435025       20.7468695812
  H        -2.4735481114       14.3975261963       21.0742757479
  C         0.1690189643       13.8439993696       21.9365051059
  H        -1.4419231170       12.8993902229       22.7864647151
  H        -0.7656323636       11.8964137389       21.4852206692
  C         1.3669577845       13.3063539994       22.7591247630
  H         0.5542788038       14.1648244147       20.9879024579
  H        -0.0919158409       14.8000421860       22.4072464463
  C         1.8437141764       12.0233506936       22.0575452804
  C         0.9685031531       12.6212115566       24.0224569974
  C         2.4886186200       14.4202170691       22.8488233250
  C         1.6430000781       10.9285657953       22.8374112736
  C         2.4119530594       11.7247355071       20.7945401642
  C         1.1815006985       11.3003947623       24.0662009518
  C         0.2927558844       13.1741141364       25.1258490165
  H         2.7814339743       14.7858969228       21.8528331311
  H         2.1038565692       15.3490209997       23.1904965957
  C         3.6064641978       13.8861915984       23.6304131768
  S         1.9367685389        9.4442296179       22.0114310390
  C         2.4489668281       10.3511034539       20.6135831739
  H         2.5525932661       12.5309611099       20.0793205020
  C         0.7089015749       10.6062578576       25.1751619755
  H        -0.0587070003       14.2440838395       25.0877967986
  C        -0.0109502968       12.4891452455       26.2691495033
  H         3.7933280470       12.8293164655       23.5430436002
  H         3.2175541351       14.1708042828       24.6269212290
  C         4.9125401385       14.6307803867       23.4118091338
  C         2.7537857727        9.6469918073       19.3138987777
  C         0.0818704825       11.1491615368       26.3356794459
  H         0.7758430521        9.5591188523       25.1324795296
  C        -0.4635037160       12.8440625412       27.4920352304
  H         5.6847396643       14.2660565641       24.1171270659
  H         4.7127984554       15.6430932593       23.7194851026
  C         5.4886815477       14.6616943128       21.9665491023
  C         2.7714305526        8.2420931241       19.1406634756
  C         3.0670762038       10.5011726422       18.1745093557
  C        -0.4116100224       10.3672240990       27.5787461093
  C        -0.8192211770       11.7390139044       28.2404235977
  S        -0.7610928160       14.2860303999       28.3008129156
  H         6.1326036731       15.4736443554       21.8124645381
  H         4.6960074574       14.9820316957       21.3899982236
  C         6.0364111440       13.3883322140       21.4032126147
  N         2.4604119894        7.2796473188       20.0929174246
  C         3.0520909873        7.6810527385       17.9160492958
  C         3.3063435962        9.9095215224       16.9202326376
  H         3.0245598090       11.6201811932       18.3447672832
  C         0.6951848811        9.6630855532       28.3188340587
  C        -1.7195921183        9.5859981612       27.2682090498
  C        -1.2443648553       12.0679666869       29.5462146747
  C        -1.3593503145       13.4062699977       29.6718012716
  H         7.0169514571       13.3482003762       21.7900595963
  H         5.5194818336       12.5217707337       21.9308848723
  C         5.8829788530       13.3111540050       19.8807050529
  S         2.7128177011        5.7987859228       19.4722875168
  N         3.0825022437        6.2972747690       17.9628337156
  C         3.2811338956        8.4572464957       16.7670190618
  H         3.5164517469       10.5546222601       16.1345798242
  H         0.8314343545        8.7006771697       27.7569827288
  H         0.3512150603        9.4116850735       29.2959908706
  C         1.9833127087       10.3173934120       28.6076473074
  H        -1.3759951592        8.8782913587       26.4316014070
  H        -1.9940324534        8.9783874464       28.0853879538
  C        -2.9580614100       10.5269004883       26.8360089080
  H        -1.4553823933       11.2478278206       30.2678104295
  C        -1.6178366350       14.1137793977       30.9837235004
  H         5.2235110980       14.1679809130       19.6743108240
  H         5.5411750188       12.3667924024       19.5272877435
  C         7.2131832516       13.5789372408       19.2706972925
  C         3.5810568423        7.6406109268       15.5522274635
  H         2.5527990420       10.2957289225       27.6754618622
  H         1.9238872617       11.3724359492       28.8360952793
  C         2.6908642198        9.6351357315       29.8512177330
  H        -2.7587776440       11.1108676445       25.9579891715
  H        -3.2023115702       11.2511992081       27.5804420065
  C        -4.2432470143        9.7371092384       26.5257486703
  C        -1.6208647641       15.4855626092       31.1785773817
  C        -1.8499614685       13.2712730523       32.2139330055
  H         7.7371603767       14.5245893829       19.5958559870
  H         7.9274733301       12.7575236716       19.5330787519
  C         7.2151227188       13.7382606256       17.7469400563
  H         3.4064042669        6.5651535774       15.5252017885
  C         3.9541881777        8.0350293412       14.2486813228
  H         2.7960978554        8.6436969245       29.5256335723
  H         2.0105063146        9.6728705710       30.6876062259
  C         4.0446415917       10.4492434371       30.0575371957
  H        -3.9649370749        9.0418580863       25.7981148439
  H        -4.6562182953        9.3697682288       27.5057129136
  C        -5.3247275810       10.6697070369       25.9326740498
  N        -1.4917878243       16.4467939624       30.1819107627
  C        -1.9081075943       16.0765485092       32.4636302946
  C        -2.0900267794       13.8457787778       33.4449914155
  H        -1.8164254179       12.2088809312       32.1270598991
  H         8.1357699248       14.0166660211       17.4014263559
  H         6.9908787800       12.8261953468       17.2012431865
  H         6.4404356977       14.4503231118       17.4599867643
  S         4.2743534127        9.6521424187       13.8088356805
  C         4.1810182366        7.0094239809       13.2285720086
  H         3.9475282221       11.4640628008       29.7188349141
  H         4.2810218375       10.5034069520       31.1189358889
  C         5.3087153424        9.8797189097       29.3003749686
  H        -5.0250143258       11.1575078750       25.0166310200
  H        -5.4711407158       11.4704285353       26.6632674088
  C        -6.6328075474        9.8996250147       25.6590097447
  S        -1.5654521207       17.9123161170       30.9106126625
  N        -1.8549914539       17.4442251510       32.4300283246
  C        -2.0710740710       15.3418328118       33.6510931586
  H        -2.1838539406       13.1852992673       34.3058691947
  C         4.5570119865        8.9872268157       12.2195713446
  N         4.5223676459        7.6304828080       12.0751592029
  O         4.0083687969        5.7825964731       13.3219878660
  H         5.8980632506       10.6078580871       28.7828745336
  H         5.0679386599        9.1927918787       28.4867458065
  C         6.1572275639        9.0736719156       30.3058578531
  H        -6.3413888337        9.0763039065       24.9584853326
  H        -7.1230935677        9.4708608528       26.5442677154
  C        -7.6648142105       10.9060523192       24.9809206024
  C        -2.4193191857       16.0133829913       34.8652264159
  S         5.1486363090        9.9216744563       10.8464404237
  C         4.6615075985        6.9537849198       10.7960641184
  H         7.1435150293        8.8222290554       29.9825644572
  H         6.4083757384        9.6489510715       31.1776339891
  C         5.4723572192        7.7575569481       30.7210213737
  H        -7.2744587285       11.1162521492       24.0116448861
  H        -7.7582232483       11.8079039932       25.4882390548
  C        -8.9774018707       10.2204551754       24.7616778647
  H        -2.2399929920       17.0962950392       34.7487123276
  C        -3.0432219378       15.6270883144       36.0257867821
  H         5.3225740977        7.4858902938       10.1308505005
  H         5.0374853866        5.9065644656       10.7518298072
  C         3.3185047401        6.9595214064       10.1067723575
  H         4.9919842611        7.3439087268       29.8085291511
  H         4.6511836771        7.9505929373       31.4361087494
  C         6.3566110539        6.6746039566       31.2658461250
  H        -9.6069063835       10.8099945991       24.0779830338
  H        -8.7445297709        9.3006727781       24.2733924208
  C        -9.7621204842        9.8826545081       26.0360002028
  S        -3.6695001565       14.0414881020       36.2943722537
  C        -3.2006869224       16.5583666036       37.1471529162
  H         3.2608766770        6.5638949128        9.1074519902
  H         2.4719610165        6.5538118515       10.6729296202
  H         3.1234299991        7.9523595977        9.9506941250
  H         6.6741341840        6.9651189042       32.2464228593
  H         7.2426249853        6.5752500844       30.6128339652
  H         5.7631101402        5.6975495820       31.3603572537
  H       -10.7862223903        9.5984684182       25.9347085296
  H        -9.7785766308       10.7147424424       26.6954243328
  H        -9.2044632985        9.1429916679       26.5997717779
  C        -4.2703959008       14.6540760704       37.8383266683
  N        -3.9212780159       15.9505917742       38.0881206815
  O        -2.7756367864       17.7807483068       37.1420813328
  S        -5.3145281164       13.7586597737       38.9133317895
  C        -4.2441081149       16.6005851288       39.3032015467
  H        -4.5147026272       17.7088288978       39.1344231066
  H        -5.1417845460       16.1903806650       39.6735076710
  C        -3.0407002036       16.5389900758       40.3264363451
  H        -2.1087423881       16.2329785708       39.7852177576
  H        -2.9573748373       17.4512156451       40.8687882905
  H        -3.3021289886       15.7340649486       41.0955366792
