352
i=
  H         2.5829187806        2.6994468829       13.3717075890
  C         3.2407609857        2.1124460274       12.8021541732
  H         2.8253390917        1.0232377772       12.6427173873
  C         3.3484800284        2.8557501609       11.4615565526
  C         4.5515900254        1.9251023431       13.5623033518
  C         4.6138152951        2.8730959558       10.7135120814
  H         3.1213953164        3.8526264036       11.8329281306
  H         2.4918008075        2.5492635037       10.9443596356
  H         4.3909369301        1.4472319933       14.5211663324
  H         4.9467009637        2.9358269802       13.7303429181
  H         5.2595608649        1.2346600599       13.1457295675
  C         4.9080628925        1.5584394317       10.0128483752
  H         4.3722241321        3.4709778639        9.8544303410
  H         5.4555642639        3.2749093546       11.2826858616
  C         5.5871288122        1.6620282472        8.6566676162
  H         4.0135757172        0.8931184233        9.9680646568
  H         5.4775563434        0.9867213836       10.7125387180
  C         6.9110290909        2.4690937034        8.4724026813
  H         4.8964946378        2.0947033813        7.8749790525
  H         5.8228825621        0.6786662536        8.4533584867
  C         7.9923993657        1.7775693977        9.2925600523
  H         7.1177780448        2.6570877202        7.3781352138
  H         6.7129172637        3.4228206901        8.8821533081
  C         9.2171746192        2.6829471744        9.5470188957
  H         8.2540486590        0.9441842618        8.6935329179
  H         7.5413828257        1.3899377045       10.2241083064
  C         8.8497919526        3.9351471255       10.2422248443
  C         9.5664103227        3.3718387257        8.3563083535
  C        10.2971819154        1.8420740486       10.2306890514
  C         8.9620027926        5.0707114995        9.4680782655
  C         8.4597830100        4.2646611095       11.5443121125
  C         9.4116384537        4.7004486552        8.1974229419
  C        10.0961476809        2.7967157292        7.2345779789
  H         9.8864249789        1.4765862884       11.2143845748
  H        10.4704219318        0.9807152632        9.5392718075
  C        11.5940156620        2.6358632847       10.4929606531
  S         8.3796291065        6.5257003820       10.2489879390
  C         8.1669273611        5.6205137256       11.6624949081
  H         8.3931119020        3.5171144251       12.3231544645
  C         9.6653756954        5.3005231897        6.9996323383
  H        10.4336128775        1.7961246431        7.2676365520
  C        10.3218986296        3.3551772290        5.9785478063
  H        11.4127819103        3.6306892705       10.9526716950
  H        12.1081212111        2.9123272535        9.5626574422
  C        12.6656174010        1.9895632199       11.4159822942
  C         7.8012416828        6.2579810479       12.9413045024
  C        10.1030713433        4.6526058856        5.8667205341
  H         9.4326784249        6.3619024380        6.9026406742
  C        10.8524234890        2.9784349746        4.7269916918
  H        13.4852405926        2.6594515082       11.4563478093
  H        12.9990652321        1.1391432861       10.8671842758
  C        12.2970988686        1.5789318137       12.8153610783
  C         7.8706582992        7.6604107184       13.1710622004
  C         7.2826925628        5.4442305233       14.1179105845
  C        10.5880231994        5.4102651906        4.5868872997
  C        11.0257744442        4.0794348978        3.9241681268
  S        11.1907637853        1.4598242493        3.9726741300
  H        11.6121530220        2.3381411482       13.0480067797
  H        11.6929154242        0.6594589180       12.8447599351
  C        13.3699008531        1.6352548842       13.8204246118
  N         8.2555030260        8.6350421551       12.2623490944
  C         7.5384211535        8.2127827730       14.4229785748
  C         6.9628722885        5.9534728016       15.3790294237
  H         7.1221571042        4.3693390776       13.9290430940
  C        11.8298296010        6.2700539619        4.8487962948
  C         9.4662655459        6.2535392980        3.8442651119
  C        11.3836262219        3.6592665581        2.6364717179
  C        11.5755089656        2.3068971672        2.5246599413
  H        13.8936326235        2.6218552972       13.7922889689
  H        14.0302695675        0.8133452020       13.3787287018
  C        12.9305955258        1.2406066021       15.2026729366
  S         8.1600222007       10.1163422964       12.9985476569
  N         7.5192765428        9.6071625183       14.3882137683
  C         7.1427726102        7.4561920087       15.5450827007
  H         6.6902882927        5.2729936294       16.1745798254
  H        11.4800330124        7.0216645734        5.5971653762
  H        12.0535443121        6.7857663297        3.9228466745
  C        13.1017451678        5.5909090039        5.3072468382
  H         9.0022970577        6.8103058734        4.6554534767
  H         9.9219466213        6.9112470326        3.1680797224
  C         8.3106953861        5.4842711579        3.1686100324
  H        11.3291117241        4.4122273951        1.8230727778
  C        11.7248984677        1.5454739053        1.2291035248
  H        11.8721988947        1.1545988043       15.1690016236
  H        13.3642005554        0.2787529001       15.4783435475
  C        13.2193259675        2.2057827565       16.4198123563
  C         6.8490286179        8.1573938712       16.7825937047
  H        12.8329340828        4.8118736220        6.0154611471
  H        13.5850320100        5.0823641324        4.5308019351
  C        14.0824987166        6.6071263114        5.9264913898
  H         7.9023710620        4.7456980362        3.8885077183
  H         8.7057536955        4.9133340691        2.3039351827
  C         7.1154279324        6.3853479775        2.8009358444
  C        11.7391958060        0.1223470546        1.0875209076
  C        11.7827872889        2.3020606437        0.0119506986
  H        12.9331485372        3.2217740362       16.1927394356
  H        14.3566232269        2.2764397056       16.5476856551
  C        12.6115110644        1.7572818715       17.7345284957
  H         7.1022569126        9.2135551915       16.6591474738
  C         6.4558714079        7.7495248297       18.0183591902
  H        13.6578515003        7.1116906685        6.8141694543
  H        14.3717714504        7.3819578770        5.2175043279
  C        15.3197332229        5.7919351705        6.4098301221
  H         6.8705216479        7.0976264317        3.6174190433
  H         7.4355436679        7.0813675789        2.0820829753
  C         6.0273544248        5.5374052169        2.1553108235
  N        11.5510316774       -0.8676856377        2.0817169846
  C        11.8716007432       -0.4647120006       -0.1827771804
  C        11.9925243530        1.6812164969       -1.2351399809
  H        11.5151317141        3.3642603764        0.0582861428
  H        11.6374387581        2.2239587321       17.8364552507
  H        13.1642249731        2.0474485479       18.6631552520
  H        12.3631699006        0.7194006513       17.8585131174
  S         5.9216122048        6.2115561482       18.5081828883
  C         6.4684624378        8.7948037119       19.0661246839
  H        15.8248062756        6.3535259142        7.1944831749
  H        15.2105413837        4.7945784749        6.8953836820
  C        16.5032269741        5.6731067810        5.3607492343
  H         5.6439175503        4.9213215380        2.9223626087
  H         6.4906109766        4.9298642023        1.4396209756
  C         4.9252502571        6.3000715513        1.5619074557
  S        11.5443603162       -2.3392241193        1.4067771369
  N        11.8126946986       -1.8543982689       -0.1457406357
  C        12.0435583014        0.2265470754       -1.3846899411
  H        11.9076862555        2.2346586858       -2.1915812890
  C         5.8320379943        6.9465163008       20.1026913393
  N         5.9591903291        8.2589701129       20.1736636653
  O         6.7713132938       10.0027039199       18.8673060736
  H        16.0955048517        5.1564315443        4.5447280446
  H        16.8120775058        6.6705852117        5.0102716345
  C        17.7753753134        4.9629980510        5.9032680863
  H         5.2505677311        6.7730550242        0.5946347366
  H         4.1342330233        5.6256090152        1.2687468322
  C         4.3176193883        7.3740012307        2.4886441066
  C        12.4006951981       -0.5085803235       -2.5688534794
  S         5.6647017780        6.0752929985       21.6354936417
  C         6.0869618240        9.0446668608       21.3490824988
  H        17.5986354434        3.9786249477        6.2770704418
  H        18.4762992587        4.6707011256        5.0471987234
  C        18.6174262257        5.8100896350        6.8827264288
  H         4.5428166433        7.2338482552        3.5227548329
  H         3.2345102660        7.3759801182        2.5544594599
  C         4.7601076285        8.8059111961        2.1069843200
  H        11.9154797297       -1.5251382007       -2.5556021780
  C        13.1274123491       -0.1624830549       -3.7055541289
  H         5.4565921945        8.5343976729       22.0503007659
  H         5.7023426293       10.0959735591       21.2935675610
  C         7.4916010840        8.9690572644       21.8942830757
  H        18.1157248733        5.7838766190        7.8818224239
  H        18.5124955624        6.8309290069        6.5342103296
  C        20.0673122246        5.3457352372        6.8664307040
  H         4.8100933140        9.4191215369        3.0033459795
  H         5.8066764780        8.8126308791        1.7771432527
  C         3.9335628675        9.5925457201        1.1300850605
  S        13.9018176245        1.3377749422       -3.9860008520
  C        13.3567895801       -1.1435024592       -4.7554189966
  H         8.0851642341        8.1050035525       21.5458451337
  H         7.5416768054        9.0241725297       22.9416288200
  H         8.0448254289        9.8794796745       21.5863457753
  H        20.1624138003        4.3008073911        7.1008195003
  H        20.3956943742        5.6129151255        5.8377591077
  H        20.6503451345        5.9016808666        7.4993068052
  H         4.5689882769       10.3614030812        0.7361736238
  H         3.8436856719        9.0178330744        0.2720188194
  H         2.9217394174        9.8957775890        1.4108566401
  C        14.3636649393        0.6552087076       -5.5573307559
  N        14.1074850690       -0.6491827421       -5.7343605413
  O        13.1445889029       -2.3629251262       -4.6489525682
  S        15.3259537383        1.5733831372       -6.6749458171
  C        14.4296512632       -1.4485508926       -6.9418933468
  H        14.6592509152       -2.4402301159       -6.5896601000
  H        15.1933328821       -0.9546301757       -7.5449749184
  C        13.2321949469       -1.5352337685       -7.8097206552
  H        13.5864893122       -2.1232157633       -8.6060640240
  H        12.9243208119       -0.7078910516       -8.4210258469
  H        12.3624136853       -2.0137295987       -7.3697398537
  H        -4.2032656279       13.5309701686       16.3898717270
  C        -3.1791675916       13.1569749763       16.4378467387
  H        -3.2253402069       12.0904482512       16.2843934124
  C        -2.3699580355       13.5133132340       17.7349341155
  C        -2.4595660917       13.7292212627       15.2531809006
  C        -3.1118496789       13.1534945880       18.9906807880
  H        -1.4719944225       12.8298501440       17.7836137360
  H        -2.1187503030       14.5397104560       17.8782084528
  H        -2.6919424120       13.1804570737       14.2978322734
  H        -2.6204960178       14.7870423792       15.1392585085
  H        -1.3905081637       13.7100506005       15.4445842296
  C        -2.0298548583       12.9263817475       20.0468476061
  H        -3.6602126693       12.1797593587       18.8769599506
  H        -3.7627743458       13.9243939286       19.3276917386
  C        -2.3994588824       13.0721309754       21.5658091170
  H        -1.6539238787       11.9607043337       19.8856217782
  H        -1.1235898160       13.4895227023       19.7796284899
  C        -1.4515985589       12.6064289426       22.6094188553
  H        -3.2823660804       12.4843955440       21.8148449408
  H        -2.6583706539       14.1045159384       21.6758148789
  C        -0.3160981906       13.5759760378       22.8036481541
  H        -2.0432714913       12.3913268862       23.5289483009
  H        -1.0378064144       11.7228227385       22.3167481880
  C         0.9674982634       12.8572515522       23.4166783983
  H        -0.0362948669       14.0386335765       21.8668800094
  H        -0.7515596264       14.2761490334       23.5513521013
  C         1.3227459343       11.5001408673       22.6236421172
  C         0.6110823567       12.1474820043       24.7159971518
  C         2.1733575846       13.8104432696       23.6007830438
  C         1.1142752370       10.4014112988       23.4603947518
  C         1.8085132166       11.1866836594       21.4379091078
  C         0.6569020355       10.7800790353       24.7273013767
  C         0.1710421484       12.7442209572       25.8600783728
  H         2.4027349816       14.1585403178       22.5814857519
  H         1.9457521279       14.6243907873       24.3175616801
  C         3.4828206272       13.1177148321       24.1045319572
  S         1.6697184096        8.9436871684       22.8051188511
  C         2.0387669669        9.8288968963       21.3559297598
  H         2.0132998770       11.9467527946       20.7582399962
  C         0.2266444397       10.1376690430       25.9098171301
  H         0.1787959556       13.7914597925       25.7845715660
  C        -0.2095834997       12.0951230993       27.0117270763
  H         3.7932238637       12.3286850452       23.4435010100
  H         3.2230403055       12.6233450741       25.0474245969
  C         4.5827647619       14.1312138484       24.4309068256
  C         2.5222080800        9.1342517808       20.0437038929
  C        -0.2008069924       10.7273142555       27.1236982491
  H         0.0097917837        9.0420858246       25.8514932722
  C        -0.5841230909       12.5104519549       28.2760400105
  H         5.3602291533       13.4784199297       24.8864714663
  H         4.3825410963       14.9185327107       25.1804889361
  C         5.3581179009       14.7541599983       23.3075326050
  C         2.5261279397        7.7560938524       19.7458899769
  C         2.8524306476        9.9449224408       18.8286653080
  C        -0.6276450483       10.0604208029       28.3948725072
  C        -0.8669602082       11.3730172489       29.1063945277
  S        -0.7900783466       13.9755181567       29.0628481458
  H         5.9940431867       15.5233020590       23.7774692339
  H         4.6584574225       15.2836992517       22.6392421132
  C         6.2065547511       13.8215976486       22.4373021681
  N         2.1588720360        6.8338327653       20.6845421539
  C         2.7249858295        7.1949498005       18.5060088721
  C         3.2133360699        9.4176502938       17.5801972131
  H         2.9261721044       10.9513481949       18.9223547807
  C         0.5257976324        9.2738436527       29.0624036248
  C        -1.9691798533        9.1985341023       28.1060210895
  C        -1.2983101403       11.8384348217       30.3403898782
  C        -1.3350746294       13.1756681260       30.4821613795
  H         7.1325322376       14.2673879305       22.0958147354
  H         6.3409860465       12.9122307334       22.9551672359
  C         5.3169930025       13.6367402665       21.1179683135
  S         2.4685834121        5.3628926231       20.1143637514
  N         2.6392167058        5.7902396001       18.5452470843
  C         3.1227414394        7.9106054142       17.3542804147
  H         3.4420852817       10.1108903304       16.7572693310
  H         0.9620742445        8.5427690817       28.3833797404
  H         0.0607944360        8.7524269580       29.9112022601
  C         1.6992584565       10.1577378536       29.5691824316
  H        -1.7170443482        8.4470768182       27.3326893768
  H        -2.2282969509        8.6380774007       29.0408063514
  C        -3.1283656855       10.0361342783       27.6056390890
  H        -1.5585572978       11.1036671453       31.0831241700
  C        -1.6624151603       13.9190590629       31.7623191188
  H         5.2355527150       14.5452180933       20.6015781502
  H         4.3649934858       13.2352699166       21.5027030114
  C         5.9985968196       12.7195595223       20.1647867616
  C         3.3657877735        7.2219747161       16.1355449619
  H         1.9867563436       10.9881306355       28.8638484087
  H         1.3049450785       10.5097790430       30.4892996139
  C         2.8327998473        9.2745693441       30.0794328227
  H        -2.7989192890       10.3645978023       26.6119267906
  H        -3.2892576086       10.8872281302       28.3064471622
  C        -4.3858550738        9.2579046764       27.2508133549
  C        -1.6852539645       15.3714387080       31.8295452480
  C        -1.6615078628       13.2772529980       33.1214841575
  H         6.7331599107       12.1311730805       20.7456619934
  H         5.2728667560       12.0234736193       19.7955057039
  C         6.8814474541       13.4503698868       19.0399449415
  H         3.4075089692        6.1770535057       16.2039278563
  C         3.7996830384        7.6477390177       14.9382550329
  H         3.1563475743        8.7883357944       29.1610321916
  H         2.4772106811        8.5718857867       30.8728096276
  C         4.0514806204        9.9163129497       30.7115344527
  H        -4.2005315037        8.5824264245       26.4818310942
  H        -4.7990491657        8.7100901480       28.0458032621
  C        -5.4129029092       10.2064613577       26.6000174078
  N        -1.6374589490       16.2528446069       30.7391688041
  C        -1.9462656315       16.0479761301       33.0039043712
  C        -1.8722200018       14.0373390216       34.2923864559
  H        -1.6130644350       12.1659881191       33.2144243908
  H         7.7341007374       13.9258984135       19.5044157417
  H         7.3750720099       12.7281869797       18.3563704092
  H         6.1749816799       14.1503634430       18.4583777440
  S         4.2772944058        9.2801558808       14.5380428270
  C         3.8680931604        6.6953250454       13.8122877065
  H         4.1509811389       10.9191895739       30.2872778755
  H         3.8323724638       10.1340727870       31.7363366581
  C         5.3789800383        9.0583782273       30.5693365061
  H        -4.9653386298       10.8510440353       25.8748603387
  H        -5.9648061041       10.7683680848       27.3707693086
  C        -6.4878297208        9.4001585884       25.8679263790
  S        -1.8253714381       17.7362710705       31.2559007706
  N        -2.0299997834       17.4251068100       32.8356585381
  C        -2.0563115519       15.4311237074       34.2567741264
  H        -1.8544581905       13.5431984526       35.2197364676
  C         4.4859044100        8.6204327195       12.8900693071
  N         4.3342715354        7.2745831713       12.7330033015
  O         3.3955380413        5.5407953342       13.9601817347
  H         6.2974533772        9.6588547917       30.8641038722
  H         5.4164821295        8.7633683242       29.4946044128
  C         5.4855686734        7.8234831358       31.3792838760
  H        -6.0735523892        8.6441133678       25.2396456662
  H        -7.1017214305        8.8631174889       26.5832643938
  C        -7.5390659288       10.2620410885       25.0763338943
  C        -2.3920770407       16.2602743863       35.3853898787
  S         5.0262710434        9.6655315929       11.6060811283
  C         4.3301790795        6.5209757401       11.4658210268
  H         5.9370444826        7.9902562054       32.3197997046
  H         4.4464756618        7.5672327599       31.6532311595
  C         6.1675882322        6.6439997837       30.5813005668
  H        -7.0776383499       10.4102867151       24.0942069847
  H        -7.6195522584       11.3249239668       25.3735003572
  C        -8.9823734029        9.6721812138       25.0866434160
  H        -2.1525246177       17.3417809205       35.2775450886
  C        -3.0388889782       16.0721901713       36.6380888134
  H         4.9700940355        6.9981425162       10.6891841425
  H         4.6894306387        5.5365225460       11.7050764150
  C         2.9085393687        6.7150970008       10.8736373341
  H         7.1679759920        6.9724406061       30.3330327753
  H         5.5419125100        6.3576797083       29.7287296701
  C         6.3710594797        5.4965942798       31.5005043948
  H        -9.4777787889        9.9972905019       24.2016292788
  H        -8.8865417923        8.6165407909       25.0007924784
  C        -9.7573577169       10.0562725707       26.2791374440
  S        -3.6210258000       14.5203704267       37.2567017177
  C        -2.9727998151       17.1501444790       37.6595784084
  H         2.9461421503        6.6507275329        9.7857572987
  H         2.2025558844        6.0671488190       11.3278537047
  H         2.5862614253        7.7198101004       11.0364047555
  H         5.3764236155        5.0524235798       31.7442152284
  H         6.9565303227        5.9056067946       32.3166222431
  H         6.9584799190        4.8734821195       30.8857913105
  H        -9.6621841333        9.1781743103       26.9311916383
  H       -10.8098400991       10.2421970009       25.9899001484
  H        -9.4653117384       11.0303576223       26.6390986474
  C        -3.8820540686       15.4044750236       38.7364892561
  N        -3.6367623316       16.7325713310       38.7455757828
  O        -2.5093243430       18.2746490032       37.4587229356
  S        -4.4632412543       14.6916756159       40.2660060313
  C        -3.8149594716       17.6552877240       39.8742904106
  H        -4.0579056895       18.7078471736       39.5716158720
  H        -4.7183760301       17.2814316664       40.3709196166
  C        -2.5888732712       17.7314923916       40.8082723064
  H        -2.9323069153       17.8127271572       41.8587807972
  H        -1.9439298273       16.8656493946       40.7031104378
  H        -1.8385315682       18.5750144586       40.6281167718
