352
i=
  H         1.9963863752        1.6290627441       12.1097196528
  C         2.9177641958        2.2045605510       12.2695925954
  H         3.7161291037        1.4446407617       12.0847551873
  C         2.8995962331        3.2789488291       11.1778525272
  C         3.0742655665        2.7724892145       13.6381717704
  C         4.1916111179        3.2734274408       10.3306950138
  H         2.7562190341        4.1945493266       11.6475354296
  H         2.0347048039        3.1798182774       10.5078421934
  H         4.0146477753        3.2496670378       13.8652275292
  H         2.9126547769        2.0052597946       14.3569240351
  H         2.3842151431        3.6303933618       13.9236207874
  C         4.5518959827        1.9924760828        9.5973324401
  H         4.0723859243        3.9319671574        9.4419761239
  H         5.0132395312        3.6615920610       10.9434961799
  C         5.2414398945        2.2006435757        8.2937172176
  H         3.7074946117        1.3364320322        9.3682940750
  H         5.2208329490        1.4129724989       10.2451395172
  C         6.6527327499        2.9100822265        8.4123977847
  H         4.5199670233        2.7966356481        7.7358274304
  H         5.2514578686        1.3277301866        7.6838884982
  C         7.7611471418        2.0791342166        9.0302799992
  H         6.8903173412        3.1741295716        7.4188246014
  H         6.4743687019        3.8231564906        8.9598830440
  C         9.0829252021        2.8825758041        9.2819469401
  H         8.0170378504        1.3338428497        8.2381721900
  H         7.4001624429        1.6705011023        9.9751279537
  C         8.8037150847        4.2275336488        9.8933215607
  C         9.6032052052        3.4996434137        8.0048955119
  C        10.2053612406        2.0742062232       10.0501023484
  C         9.1778847058        5.2991401133        9.0834417957
  C         8.0484172660        4.6494095442       11.0289464425
  C         9.6418903658        4.8465921541        7.8949166268
  C        10.1140171023        2.8462467452        6.9037173262
  H         9.7721870118        1.9084679113       10.9937621354
  H        10.3671404812        1.1339658265        9.5372091685
  C        11.6074785644        2.7881805351       10.0931653271
  S         8.9065022476        6.7534270185        9.8697072086
  C         8.1465913695        5.9808238087       11.2338002751
  H         7.5213709620        3.9321625333       11.5916847623
  C        10.1091078097        5.4349644998        6.7387292422
  H        10.1998297698        1.7783224375        6.9865662920
  C        10.4619573195        3.3437911902        5.6776799688
  H        11.5526632586        3.8683196044       10.1159808673
  H        12.1289793027        2.4295894148        9.2645028346
  C        12.3378310213        2.3068269745       11.3614806414
  C         7.6998335572        6.7640463215       12.4805387601
  C        10.4962756337        4.6707730500        5.5644581871
  H        10.1495876547        6.4543139266        6.5378438368
  C        10.8405860405        2.8529195075        4.4497321321
  H        13.4181216102        2.6584946379       11.2999281315
  H        12.4150384805        1.1812942741       11.3499110268
  C        11.8315561399        2.7351665511       12.7067990126
  C         7.4437646998        8.0915250771       12.5829190272
  C         7.4928280467        5.9383059457       13.7527500096
  C        10.9405682224        5.2006806976        4.2113504868
  C        11.1409352518        3.8446423140        3.5708847025
  S        11.1451207002        1.3435618503        3.7591885880
  H        12.4776348578        3.6512950222       12.9616653543
  H        10.8472654360        3.1388966252       12.6554591230
  C        11.8854893238        1.7141807734       13.7651752390
  N         7.7789127917        8.9961993852       11.5695566539
  C         7.3544322593        8.7238984052       13.8525874808
  C         7.1282386984        6.5481708761       14.9283862322
  H         7.5095376095        4.8374138750       13.7412908745
  C        12.2247813986        5.9411546624        4.3117700313
  C         9.9477758326        6.1172174624        3.4314948508
  C        11.6212364066        3.4432290969        2.3396074783
  C        11.5619186301        2.0983902626        2.2309147531
  H        12.5482348266        0.9342926062       13.3268230571
  H        10.9177354022        1.2581159264       14.0258251216
  C        12.5377728813        2.3407030394       15.0257942463
  S         7.8321816808       10.4827037480       12.2459435886
  N         7.5418454079       10.0804511733       13.7306981155
  C         7.1119052614        8.0597523187       15.0259164569
  H         6.9912047699        5.8443219291       15.7423823761
  H        12.0734487665        6.8582114182        4.8873116449
  H        12.4845995314        6.3898407289        3.3523232697
  C        13.4254792230        5.1117040380        4.7281080743
  H         9.8739974970        7.1207079033        3.8244462381
  H        10.2972257110        6.1280635951        2.3108314411
  C         8.6023970802        5.3958575818        3.3477801111
  H        11.9022483776        4.2108799777        1.6699831278
  C        11.7713899387        1.4052486529        0.9140465316
  H        13.5923830491        2.4248916941       14.8833093539
  H        12.2190416563        3.3386991895       15.2249091291
  C        12.2805255094        1.4914676797       16.2724635458
  C         6.9372649389        8.7941820086       16.2675330566
  H        13.1272998252        4.5882632629        5.6106629871
  H        13.7123426341        4.2752579918        4.0708916596
  C        14.5403196177        5.9476480109        5.2915277320
  H         8.2130440782        5.0242660952        4.2882074720
  H         8.6528439156        4.4593405232        2.7219842016
  C         7.5407926854        6.3412727600        2.7766394968
  C        11.7255471123       -0.0129359699        0.8008348619
  C        11.9627603622        2.1353165337       -0.3285846278
  H        12.7015545505        0.4409242018       16.1241508349
  H        11.1976054186        1.3259899802       16.5215088562
  C        13.1608230384        2.2085277096       17.3433219455
  H         7.2732501488        9.8280398940       16.1474838348
  C         6.6303821413        8.3763246888       17.5425980749
  H        14.0272367895        6.5928482424        6.0254791738
  H        15.0350790383        6.5482414258        4.5361342134
  C        15.6316107516        5.1307550551        5.9855289824
  H         7.0378089243        7.0151407572        3.4940277773
  H         7.9875759777        6.9196793173        1.9950568455
  C         6.4416517405        5.5711463422        2.1409840875
  N        11.6426943499       -0.8959831094        1.8923720363
  C        11.9164203702       -0.6337771294       -0.4148576604
  C        12.1952724084        1.5178193514       -1.5512699957
  H        11.9532226927        3.2356061248       -0.2612038642
  H        14.2034106833        1.9695139245       17.3327191995
  H        12.7936910601        2.1101502719       18.3064959361
  H        13.2371027345        3.3268067547       17.1609496144
  S         6.3001177550        6.7346500144       18.0959216973
  C         6.6136595781        9.4470533878       18.6310342921
  H        15.3030871129        4.5566986932        6.7662927892
  H        16.0451067429        4.4840141841        5.1638388633
  C        16.8148438290        6.0129650018        6.4976347630
  H         5.7039477026        5.3445854886        2.8827299466
  H         6.7786461437        4.6760019048        1.6782953002
  C         5.6532317589        6.4143293441        1.1683040050
  S        11.5375334310       -2.4162350075        1.2263227368
  N        11.8950823010       -2.0571661284       -0.3003212319
  C        12.1431510081        0.0171791220       -1.6636045648
  H        12.4351443573        2.1520690483       -2.4392919738
  C         6.1517095022        7.4677515755       19.7228805756
  N         6.2550137842        8.8709079052       19.7346333080
  O         6.9117076835       10.6308422572       18.4495091565
  H        17.2872454457        6.4102122840        5.6167258336
  H        16.4289789015        6.9414277773        7.0269302348
  C        17.7734985160        5.1586087983        7.2551433204
  H         6.4035663487        7.0337055114        0.5578672665
  H         5.0200777982        5.8201092263        0.5690909756
  C         4.6944435500        7.3740729136        1.8984208767
  C        12.2795018651       -0.8211101502       -2.8186240436
  S         5.6817143338        6.5485372190       21.1123217122
  C         6.2897091156        9.6420713490       21.0075465067
  H        17.3016814858        4.7892147877        8.1654932326
  H        18.0534785062        4.2663844279        6.7238291208
  C        19.0775913432        5.8884804969        7.5541949069
  H         5.1733577644        7.9126119292        2.6510544478
  H         3.8616729294        6.8418690202        2.4128020553
  C         4.0692631939        8.3770783753        0.9110709373
  H        11.9343758611       -1.8022134873       -2.6607345762
  C        12.8159800324       -0.4904703157       -4.0545806787
  H         5.5956875400        9.3260948196       21.8118716368
  H         5.9071756646       10.5831426572       20.7179594816
  C         7.7396002313        9.7541975718       21.4643434743
  H        19.6841076296        5.1392786088        7.9797848946
  H        18.9236663292        6.6321153594        8.3369496666
  C        19.6801848355        6.5161891148        6.2468426056
  H         4.8016525014        8.8125291887        0.3589869905
  H         3.4347856772        7.8735282600        0.2480312304
  C         3.3030465964        9.5422783729        1.5825122785
  S        13.6031900673        0.9688570796       -4.4125096012
  C        12.9360219341       -1.5974420009       -5.0295114720
  H         7.9341737381        9.2063189150       22.4049587133
  H         7.9950776997       10.7808690219       21.6708847412
  H         8.4230101150        9.3740138784       20.7629024682
  H        19.7489506798        5.7993426865        5.4000536417
  H        19.1889482500        7.4847152420        5.9396469568
  H        20.6755822736        6.7998341287        6.4750170055
  H         3.8295687292        9.7428461897        2.4960825345
  H         3.3103959296       10.3964341132        0.8667036334
  H         2.2713970733        9.2676843208        1.8111662544
  C        13.7688201495        0.2201469382       -6.0253811627
  N        13.5521442677       -1.0963707263       -6.1240584606
  O        12.6269326054       -2.7135968889       -4.8824548453
  S        14.5191040316        1.0078031826       -7.4681099445
  C        13.7393872771       -1.8723752351       -7.3381822245
  H        13.8332703271       -2.8478429255       -6.9303126832
  H        14.7579842627       -1.6842284104       -7.8011541730
  C        12.5438479728       -1.7070875917       -8.3398888054
  H        12.4125194361       -2.3973302461       -9.2004168829
  H        12.5909420100       -0.7042706604       -8.7606046309
  H        11.6127324376       -1.7319641395       -7.8273673549
  H        -0.6106074339       13.2734933456       17.3476226327
  C        -1.0035306861       14.1376539936       16.8073547034
  H        -0.2018232011       14.6017023772       16.1853816776
  C        -1.4852301536       14.8091756442       18.0850757653
  C        -2.0874005730       13.8333991166       15.8121358906
  C        -2.5234600053       14.0372626759       19.0096516372
  H        -0.5808304180       15.1371471399       18.6116258939
  H        -1.8111465762       15.7649950355       17.7312942926
  H        -2.9007382631       14.5699967311       15.8798717444
  H        -1.5880820225       13.7823067327       14.8958065596
  H        -2.5779449170       12.8451518943       16.0075297877
  C        -1.8380513739       13.0910574927       19.9686526150
  H        -3.1820500355       13.5066197699       18.3033154480
  H        -3.0409679447       14.8475925212       19.5937683602
  C        -1.9913225464       13.2286255210       21.4614705387
  H        -2.2843166274       12.2058400627       19.6400442943
  H        -0.7947570740       13.0442871597       19.6116284562
  C        -0.8218068712       12.5778610408       22.2058080826
  H        -2.9024319497       12.8099977056       21.7934914374
  H        -1.9863688356       14.3223286328       21.7017860710
  C         0.2064200216       13.6009371052       22.5553436827
  H        -1.1893897085       12.0328807191       23.1308134102
  H        -0.3796415321       11.7625853372       21.5596202062
  C         1.4379146435       13.0378547011       23.3918672902
  H         0.6280205391       13.8848929245       21.5567733950
  H        -0.1084870493       14.4218660667       23.0922072678
  C         1.8667111470       11.7401360768       22.6368779342
  C         1.0263997418       12.2560059298       24.5588146820
  C         2.6431122825       13.9902994488       23.5308550982
  C         1.7257019024       10.6360741716       23.4136147276
  C         2.1854855199       11.4203902745       21.3084017159
  C         1.1350952511       10.9391607636       24.6110652272
  C         0.4383833820       12.7636521465       25.6857071009
  H         2.7891558666       14.5863898449       22.6561172610
  H         2.5291793304       14.7362413659       24.3667101134
  C         3.8949297415       13.2607279587       23.9466248914
  S         2.1920444075        9.1714912199       22.5371418335
  C         2.4745153730       10.0749223726       21.1414390512
  H         2.3027140452       12.1696800161       20.5194976242
  C         0.7121273687       10.2247849216       25.6994561031
  H         0.3933644513       13.8124068586       25.7622887487
  C        -0.0169683260       12.1263898879       26.8094658475
  H         4.3267509831       12.7152187729       23.1141138025
  H         3.8446826045       12.6644631936       24.7924911159
  C         5.0173653426       14.1820457388       24.3124770265
  C         2.7854867517        9.3761844922       19.8013797545
  C         0.1880686251       10.7748562932       26.8654655528
  H         0.9545004330        9.1766579668       25.6705557889
  C        -0.4249447006       12.4479042052       28.0777015163
  H         5.8087381370       13.6131708022       24.8613815113
  H         4.6235746814       15.0553938214       24.8775918157
  C         5.6714101366       14.9852899850       23.1602260025
  C         2.6859527082        8.0410024211       19.4699431503
  C         3.1480551459       10.2937573437       18.6487092070
  C        -0.1232774245        9.9587042230       28.0341038801
  C        -0.5178877760       11.2571405277       28.7908503752
  S        -0.7677727817       13.8385312942       29.0117689676
  H         6.1922431186       15.7913892432       23.6247551539
  H         4.8593330452       15.4023266427       22.6268575329
  C         6.4527074133       14.2018236626       22.1669222771
  N         2.3595856101        7.0582550183       20.3899968679
  C         2.9676888873        7.5664573009       18.2131415836
  C         3.5918520800        9.7651495298       17.4224199199
  H         3.1611558488       11.3431217691       18.7455785002
  C         1.1312800447        9.2910743972       28.7162942050
  C        -1.3240123231        9.0606586701       27.8917495696
  C        -0.9265081123       11.5336658909       30.1444577049
  C        -1.0589887048       12.9051154312       30.3791404824
  H         7.4827343065       14.5477519647       22.0420320033
  H         6.6071625704       13.1801660653       22.5034540379
  C         5.8594065504       14.1657281000       20.7906508416
  S         2.3801798074        5.6342884820       19.6340765124
  N         2.8604009862        6.1734262312       18.1284546853
  C         3.4999374454        8.3120188727       17.1411608020
  H         3.8540997394       10.5228594430       16.7193498521
  H         1.3852313740        8.4445195003       28.1148845495
  H         0.8695766577        8.8047632076       29.7218774227
  C         2.3397579496       10.2570145559       28.9783141787
  H        -1.2346533849        8.5490560849       26.9278387872
  H        -1.2362637542        8.2771662327       28.6033262869
  C        -2.7355161220        9.6718609768       27.9413998876
  H        -1.1040032841       10.6940358513       30.7716959838
  C        -1.3856657326       13.5126338965       31.7056685253
  H         5.8853082323       15.1333969075       20.2582933789
  H         4.8655609180       13.7820233723       20.8709990415
  C         6.5115567623       13.2116348803       19.9283678818
  C         3.7251795180        7.6253146794       15.8831595334
  H         2.6527599191       10.7102194866       28.0215231638
  H         2.0039736106       11.1894011088       29.5104833869
  C         3.3935890488        9.6386500119       29.8490922919
  H        -2.7184852009       10.4046574288       27.1902207211
  H        -3.0984562708       10.0627258749       28.9202021139
  C        -3.8894572280        8.6829230676       27.4901423105
  C        -1.5021730503       14.9016775954       31.8974294243
  C        -1.6266369815       12.6471596511       32.8750110361
  H         7.1207463482       12.5241225526       20.5729482478
  H         5.8102063293       12.6095208490       19.4167639577
  C         7.3948657598       13.7549928817       18.8197530048
  H         3.9448842695        6.5947277827       15.9474262971
  C         3.8527977787        8.0830979502       14.5724919490
  H         4.0649445086        9.0365042577       29.2896411567
  H         2.8751793010        8.9601649011       30.5332574083
  C         4.2542509323       10.5670127680       30.6299713185
  H        -3.5135562520        8.1711790286       26.5749437201
  H        -4.0099223183        7.8807867750       28.2021559216
  C        -5.1959006026        9.4283070546       27.3938498036
  N        -1.2304547579       15.8765499672       30.9738164007
  C        -1.8856901901       15.4165856241       33.1125582477
  C        -2.0029166517       13.1554281470       34.1270800521
  H        -1.5148977107       11.5836803133       32.7766104248
  H         7.9090922970       14.5870998976       19.2382039931
  H         8.0981606845       12.9759728063       18.5838300785
  H         6.9579987799       14.0486775417       17.7934476329
  S         3.8037640318        9.7283077762       14.2126700547
  C         4.0649194057        7.1138326033       13.4117638710
  H         4.1783151247       11.5236569647       30.2051086227
  H         3.8166613323       10.6582130675       31.6054121073
  C         5.7677832555       10.2889358725       30.8071225485
  H        -5.1012912897       10.2309998331       28.0996289147
  H        -6.0829246223        8.8480687519       27.6349917022
  C        -5.1976039373       10.0229941487       25.9466192916
  S        -1.5535903098       17.2834803737       31.6664599614
  N        -1.9382641923       16.8033362513       33.1126878367
  C        -2.1375502528       14.6019065103       34.2187194370
  H        -2.1686740977       12.5133469325       34.9602699358
  C         4.1807441807        9.1958838463       12.5207648025
  N         4.2207744272        7.8039668431       12.2293546957
  O         4.0972770547        5.8896334172       13.6112720141
  H         6.2334438401       11.1535067054       31.1813106415
  H         6.1566832224       10.1803792307       29.8338366563
  C         6.0934203277        9.0721867529       31.6477289897
  H        -4.4409247055       10.8815042241       25.8906469408
  H        -4.8512593846        9.3064984329       25.1819764733
  C        -6.5562657841       10.6687791945       25.5141199790
  C        -2.3206290611       15.3369410214       35.4083309861
  S         4.5401453791       10.1989465043       11.2019331669
  C         4.3983321218        7.1290541007       10.9062256450
  H         6.7032343664        9.2372304594       32.4914552261
  H         5.1786917220        8.5961348250       32.0253753063
  C         6.7453586874        8.0781528809       30.7779904711
  H        -6.3466484307       11.2194381796       24.5564894662
  H        -6.8018588152       11.3073906900       26.3075189124
  C        -7.5982254768        9.6237834646       25.1688669035
  H        -1.8601297651       16.3057638381       35.3928127452
  C        -3.0163604451       15.0513153957       36.5549232478
  H         5.0587047251        7.6218656977       10.1639026184
  H         4.9319516504        6.2688898262       11.2274927981
  C         3.1039917812        6.7763597594       10.0927824842
  H         7.5972398854        8.5341127534       30.2658592314
  H         6.0375991213        7.7573729890       29.9885208530
  C         7.1631034304        6.7845214256       31.4763995509
  H        -7.3334823294        9.3504726846       24.1798614153
  H        -7.4395100122        8.8097142294       25.8334986851
  C        -8.9988279290       10.2017481350       25.1270759266
  S        -3.8999444848       13.6806781612       36.9229460581
  C        -3.0474382931       16.1132432362       37.6204302121
  H         3.3572254232        6.5254860846        9.0716813024
  H         2.4238492148        6.0328774403       10.4099744287
  H         2.4568183220        7.6193920472       10.0895323493
  H         6.3126089853        6.3647419602       32.0450901763
  H         8.0013929540        6.9497055785       32.2129580496
  H         7.4937190916        6.1993853769       30.6757609436
  H        -8.9441886489       11.2994835513       25.0991104309
  H        -9.5854559382        9.9613863240       26.0383019270
  H        -9.5646339338        9.9721334874       24.2204048729
  C        -4.3213361199       14.4617302354       38.5181851251
  N        -3.9246052056       15.7378088728       38.6108334463
  O        -2.4252900816       17.2121446129       37.5930138432
  S        -5.2840815851       13.7938179917       39.7843259591
  C        -4.0161944887       16.5970656937       39.7828736761
  H        -4.1635252219       17.6597230532       39.5325215825
  H        -4.8541842437       16.3754486204       40.3810749315
  C        -2.7396589839       16.3150657094       40.5094644698
  H        -2.9068842640       16.5070444921       41.6043097806
  H        -2.4608848700       15.2461739693       40.3834221841
  H        -2.0534908987       17.0380817853       40.1889961664
