352
i=
  H         5.0264511000        1.5631327377       12.7969133047
  C         4.1785607178        2.2789250719       12.8463668027
  H         4.7590632790        3.1805285779       12.7896725933
  C         3.3186257949        2.1137482683       11.6502066873
  C         3.4050573271        2.1594782671       14.1182689723
  C         4.0690012858        2.4293498486       10.3503049913
  H         2.4212156143        2.6969141048       11.7235720578
  H         2.9866631485        1.1253798675       11.6240178183
  H         2.6049731180        1.4259470290       14.1069052769
  H         3.1503831807        3.1742862837       14.3240895091
  H         4.1368281544        1.7633028463       14.8092875467
  C         4.5543538295        1.1609481936        9.7197429766
  H         3.3560950344        2.7115633847        9.6164543740
  H         4.8805923071        3.1271273030       10.5001925331
  C         5.3026428875        1.5297114001        8.4897072231
  H         3.7699080474        0.3992659055        9.5230948867
  H         5.3527295862        0.6734597670       10.3982884830
  C         6.5142954242        2.4052039838        8.6004952559
  H         4.6831469334        1.9203761505        7.6836624666
  H         5.5040654912        0.5766282917        8.0171405773
  C         7.7401799784        1.7444271282        9.2601329053
  H         6.7777753847        2.6510696496        7.6147662099
  H         6.2992476564        3.3399156464        9.0302201257
  C         8.9484271313        2.6583698722        9.4261794653
  H         8.0332483185        0.8643521246        8.6167141094
  H         7.4799270167        1.4095634299       10.2649417604
  C         8.5305078169        3.9216136600       10.0431400706
  C         9.4356507043        3.2958698480        8.1599762860
  C        10.0846893623        1.9700132059       10.2419177018
  C         8.9581025682        4.9966497423        9.2866671352
  C         7.9666344003        4.3655917843       11.2396355367
  C         9.4586407910        4.6299736657        8.0768359956
  C         9.9775096664        2.6254248465        7.0425414143
  H         9.5834332763        1.6591564379       11.1500566442
  H        10.4956747615        1.1614280155        9.7216807395
  C        11.2720464086        2.8510096081       10.7367592694
  S         8.5689295597        6.5311226492        9.9719750506
  C         7.9753538696        5.6971863562       11.4090705570
  H         7.6177592709        3.7006997451       12.0034638524
  C         9.9681709869        5.2698444847        7.0296721272
  H         9.9488499987        1.5246043166        7.0597522232
  C        10.4089396624        3.2940764227        5.9539740868
  H        10.8416065278        3.6703700978       11.3125350298
  H        11.7279834217        3.1862965645        9.7721375813
  C        12.2423979242        2.1744789541       11.5964174468
  C         7.6390812652        6.4218091687       12.7041528604
  C        10.3911863859        4.6646951883        5.8942843779
  H         9.8643324638        6.2912066124        7.0968118911
  C        10.9081644069        2.9128514364        4.6955995970
  H        13.2194097836        2.6283494360       11.5272073801
  H        12.4925666031        1.1960110504       11.1670286977
  C        11.8456011013        1.8756933061       13.0658290953
  C         7.6015118255        7.7759852489       12.9681717895
  C         7.3390834280        5.6417066827       13.8858844126
  C        10.8627238119        5.3298855349        4.5906762548
  C        11.2023682193        3.9779327697        3.9157085069
  S        11.0131399091        1.4148880532        3.9346489283
  H        11.3899238767        2.7504334501       13.5464941711
  H        11.1972621418        0.9552215706       13.1517319101
  C        13.1039435579        1.6465592258       13.9134391986
  N         7.8328331424        8.6879721722       11.9827552387
  C         7.4343837019        8.3726733419       14.2236903052
  C         7.0998940310        6.1669147300       15.1409912976
  H         7.4766459388        4.6126253888       13.8671026668
  C        12.1790871894        6.0987775671        4.8002454736
  C         9.6853297113        6.1818535677        3.9833290669
  C        11.5431098938        3.5491088171        2.6358831847
  C        11.5394701032        2.1783018711        2.5120357002
  H        13.5138407287        2.6952571412       14.1094887658
  H        13.8686859795        1.0904054622       13.3190694707
  C        12.9307711162        0.9816735527       15.2521439981
  S         7.8876764339       10.2091328265       12.6339377988
  N         7.5302626965        9.7374256178       14.1578609831
  C         7.1684053489        7.6222094763       15.3949037679
  H         6.9692297149        5.5394717069       16.0006796255
  H        12.1497198974        6.8704572254        5.5389892804
  H        12.3665662448        6.6670669540        3.8718841386
  C        13.4429959154        5.2643998945        5.1216043334
  H         9.3599199710        7.0068134027        4.6801103759
  H        10.1873701154        6.6564017703        3.1199100045
  C         8.6220854218        5.3274496424        3.3995110892
  H        11.7371111951        4.2761255722        1.8742249701
  C        11.8172526319        1.4199190181        1.2829265236
  H        12.3770318346        0.0735391984       15.1390204840
  H        13.9139204923        0.7304228839       15.5279447468
  C        12.2974824102        1.8216857527       16.3017502163
  C         7.0091716864        8.4051674870       16.6420030707
  H        13.2206955125        4.6820374912        5.9361760284
  H        13.6697851619        4.5045770586        4.3111836334
  C        14.5711352511        6.1715014472        5.4933275243
  H         8.3276075934        4.6010340158        4.1452438863
  H         8.9670959771        4.8047939708        2.4982742101
  C         7.4559199643        6.2576008018        2.8861058616
  C        11.7525308296        0.0343486959        1.0385006004
  C        11.9479177965        2.1927662221       -0.0277487840
  H        11.6243615516        1.1668024664       16.8950293596
  H        11.6199216152        2.5069878455       15.7792188601
  C        13.2949282168        2.5402826718       17.1783005101
  H         7.2531683445        9.4095657987       16.5991866444
  C         6.5395756219        7.9389309878       17.8388644707
  H        14.3217435772        6.8749712421        6.3346611820
  H        14.7062815793        6.9450315277        4.7313706833
  C        15.8824349371        5.4781663122        5.7684376741
  H         7.0326639549        6.8662461390        3.7275495608
  H         7.8939853256        6.9898840914        2.1894493341
  C         6.2057572833        5.5382883233        2.2378999111
  N        11.4447795169       -0.9446593581        1.9866764824
  C        12.1576890451       -0.5723518572       -0.1785361050
  C        12.1786323065        1.5289952745       -1.2901707972
  H        11.8610420607        3.2641707675       -0.0157201944
  H        13.7003455326        1.8228151301       17.9429105636
  H        12.8441701063        3.3450929562       17.6615435123
  H        14.1761801309        2.8298056776       16.6242189126
  S         6.0916290026        6.3608658732       18.2909353236
  C         6.4393455763        8.9798639730       18.8929676507
  H        15.9595564488        4.4923185699        5.4481717363
  H        16.5314727163        6.0757492418        5.1167454941
  C        16.3095718704        5.4279611119        7.2623804352
  H         5.4049116550        5.4277741914        2.9558930074
  H         6.4944475917        4.6048478848        1.7731151595
  C         5.6857344747        6.3615921638        1.0072618060
  S        11.6075440298       -2.3946937691        1.3821221030
  N        12.0498342588       -1.9906011835       -0.1424368819
  C        12.4649405221        0.0923610357       -1.3614744109
  H        12.2704011400        2.0899852964       -2.2057155115
  C         6.0330609079        6.9786940490       19.8751665750
  N         6.0380335033        8.3187657510       20.0021445578
  O         6.8619446955       10.1403178412       18.7595212368
  H        16.2872861525        6.4370598698        7.5727545319
  H        15.6161105985        4.8191187748        7.7255796004
  C        17.7017009714        4.9831367913        7.6058812858
  H         6.4560034289        6.3548175223        0.1631061161
  H         4.7774234368        5.8652094402        0.7550665862
  C         5.2567279652        7.7895186090        1.4354246730
  C        12.6249122611       -0.6335048038       -2.5757385850
  S         5.6932914511        6.0753883401       21.3399711642
  C         5.9458688931        9.1140494205       21.2363496085
  H        17.6995772594        4.6138294255        8.5857247553
  H        17.9135438501        4.0980750503        6.9231713558
  C        18.7080057460        6.0801706387        7.5723757536
  H         6.0673008991        8.4679501265        1.0940874970
  H         5.3174712380        8.0345175492        2.5246206176
  C         3.8369524459        8.2403157378        0.9012533879
  H        12.6144084480       -1.6901300351       -2.6061899183
  C        13.2120680531       -0.2107547490       -3.7565356780
  H         5.1414891552        8.7078272786       21.8139029097
  H         5.7106027682       10.1400645837       21.1387732981
  C         7.2521567202        9.1423560148       21.9436549039
  H        19.3910377418        5.5608271177        8.1000385186
  H        18.3125745008        6.8960358931        8.1379983469
  C        19.2029651255        6.4363053300        6.1462774956
  H         3.3293717718        7.7584605807        0.0829407485
  H         3.1538198358        8.0990579288        1.7500148959
  C         3.7484389174        9.7643398166        0.6693803158
  S        13.6929221668        1.3010320736       -4.2491402039
  C        13.3789890565       -1.2515172078       -4.8122287650
  H         7.4134960623        8.1847146850       22.4166577861
  H         7.1092255389        9.9321149749       22.7410157387
  H         8.1490338910        9.4333617225       21.4521139501
  H        19.2708424066        5.5434128163        5.5217475256
  H        18.4960669868        7.0401854215        5.6928982454
  H        20.1975949426        6.9311302866        6.1698525340
  H         3.7087642220       10.2654280787        1.6161790800
  H         4.6347231427       10.1197655862        0.0649431731
  H         2.8854358913       10.1487194978        0.0312723000
  C        14.1424972094        0.6359448433       -5.7938911424
  N        13.9600016613       -0.6964234626       -5.8928705045
  O        13.1130869347       -2.4049385937       -4.7617272863
  S        14.6203120405        1.5040368902       -7.2596848017
  C        14.0777425278       -1.4635374886       -7.1212390921
  H        14.3642704937       -2.4504375994       -6.8887409712
  H        14.9091929583       -1.0339244784       -7.7257642321
  C        12.8317283861       -1.3733835753       -7.9675323457
  H        12.9169859947       -0.5691793309       -8.6991783412
  H        11.9312273678       -1.2044558604       -7.2852545069
  H        12.4978854154       -2.3324440699       -8.3227098537
  H        -2.7094989845       15.4084598027       16.0847818174
  C        -2.8449982456       14.3145357391       16.3948621992
  H        -3.8715106003       14.1356985615       16.7665584707
  C        -1.7610540906       13.7620916725       17.4363776593
  C        -2.8749849766       13.5427425623       15.1071595242
  C        -1.9580775349       14.2455223837       18.9403435855
  H        -1.6949894056       12.6510200163       17.4520773987
  H        -0.7551348935       14.0241831260       17.0191488009
  H        -3.8649752269       12.9870639088       15.0785125134
  H        -3.0128677060       14.2497114490       14.2531900725
  H        -1.9462852198       13.0546979002       14.8714640431
  C        -1.7625401030       13.1413428041       19.9916133644
  H        -2.9005512323       14.6333659568       19.2109636317
  H        -1.1780281174       14.9597664347       19.1502128718
  C        -2.1856718361       13.5406864080       21.4344197990
  H        -2.3898970137       12.2534643462       19.6866538152
  H        -0.7236866728       12.8615982265       19.8887065780
  C        -1.2525782770       13.1036906601       22.5268660857
  H        -3.1908503866       13.2190536824       21.5750563834
  H        -2.2351615731       14.6173623965       21.5779047709
  C         0.0351900751       13.9129121284       22.6408035474
  H        -1.9181694375       12.9812528217       23.3626032855
  H        -1.0295329344       12.0535129894       22.3558320346
  C         1.1658159981       13.2719132581       23.5251297439
  H         0.3909301616       14.1383908012       21.6668012158
  H        -0.2868213413       14.8580082263       23.1511396989
  C         1.4975662117       11.8725750698       22.8589093598
  C         0.7488950679       12.4849801171       24.7745290033
  C         2.4616775931       14.2192112177       23.6411563321
  C         1.3955221708       10.7729609323       23.7261173829
  C         1.8443589405       11.4582259594       21.6007469192
  C         0.9014573339       11.1659104524       24.9598874705
  C         0.1745471773       13.1073153477       25.9098704468
  H         2.4911508959       14.7973373372       22.7196944930
  H         2.0993883173       14.8509093057       24.5204599243
  C         3.7333081029       13.4869548652       23.9572465643
  S         1.7979722360        9.2489413415       22.9266895164
  C         2.1721217945       10.1342036820       21.5088648726
  H         1.9466704995       12.1870721595       20.8488047756
  C         0.4340253222       10.5312199380       26.0832949773
  H        -0.0013999588       14.1726792422       25.7096838277
  C        -0.2219718415       12.4845646802       27.1047865380
  H         4.0065667255       12.7720599615       23.1957632224
  H         3.6134961251       13.0463130081       24.8976049364
  C         4.9676744150       14.4006157670       24.0710113904
  C         2.5521698948        9.4840670874       20.2187124300
  C        -0.0633382069       11.1566497927       27.2080895618
  H         0.4876153785        9.4886048026       26.1799960505
  C        -0.7083549682       12.8304565221       28.3057939094
  H         5.7800587729       13.9254605905       24.6400715495
  H         4.6180903712       15.3706290152       24.4991141396
  C         5.5302670408       14.7695651849       22.7295373876
  C         2.4462540853        8.0973253740       19.9254501619
  C         3.1328893386       10.3189752537       19.1120730621
  C        -0.5297442550       10.4048506170       28.4514935682
  C        -0.9372040979       11.7243360115       29.0890198858
  S        -1.2089779840       14.2725179213       28.9670044384
  H         6.1211980257       15.6874686088       22.9119161877
  H         4.8218232566       15.0468603882       21.9789013050
  C         6.3921029157       13.6354585682       22.1926448479
  N         2.0582678881        7.1306495025       20.8481451823
  C         2.6981770125        7.4609683678       18.6965117697
  C         3.2721969910        9.7087832461       17.8492384848
  H         3.3311408786       11.3605110759       19.1292907164
  C         0.3894866885        9.5351983312       29.3984537344
  C        -1.8844006717        9.6299394407       28.1706409814
  C        -1.3382352344       12.1307888197       30.3041494107
  C        -1.4138031792       13.4553101281       30.3982613664
  H         7.3855422239       14.1011690423       22.1200407104
  H         6.2824504220       12.7381582046       22.7864947408
  C         6.0040447196       13.0810348460       20.7754319632
  S         2.0429310869        5.5767704774       20.2293837731
  N         2.5298887175        6.0407217983       18.7630945264
  C         3.1458328341        8.2036468833       17.6057669957
  H         3.6011909750       10.2652647674       16.9841595101
  H         0.4594684879        8.6100089355       28.7541133122
  H        -0.0036201853        9.2572661385       30.3556096684
  C         1.6962006443       10.3933161894       29.6694850401
  H        -1.6995787637        8.7370282669       27.4522570735
  H        -2.2452294664        9.2378835884       29.1167139663
  C        -3.0838782158       10.3955584647       27.4935481909
  H        -1.5087494300       11.3887034314       31.1004481304
  C        -1.7929211447       14.2029583896       31.7046537283
  H         4.9115704948       12.8993811360       20.9004342066
  H         6.5771376729       12.1805174800       20.5282201099
  C         6.2639776634       14.1008577239       19.6873697780
  C         3.3344362792        7.4753883050       16.3906539881
  H         2.1566965260       10.7790350734       28.7160568675
  H         1.3725835120       11.2318991658       30.3462406136
  C         2.7801037791        9.5735592291       30.4489360901
  H        -2.7026488866       10.8406667915       26.5273953148
  H        -3.3881962168       11.1630599789       28.1776437191
  C        -4.2120556826        9.5772130384       26.9470580701
  C        -1.8000251584       15.6473928726       31.9296319630
  C        -2.1721399326       13.4608743881       32.9055998110
  H         5.3216070687       14.6427091923       19.6126806331
  H         7.1422578911       14.6378431279       19.8430741823
  C         6.4299845021       13.3052996956       18.3920933143
  H         3.1946821826        6.4344946641       16.5199639200
  C         3.6151910692        7.7927151744       15.1267080278
  H         2.9518294133        8.6428500336       29.9532920432
  H         2.3550642705        9.2998484080       31.3511591975
  C         4.0765213871       10.3428729151       30.4757501518
  H        -3.8677081498        8.7889658242       26.2692849261
  H        -4.7212371999        9.0930707558       27.7654968671
  C        -5.2350733808       10.4688213619       26.2260866677
  N        -1.5461320911       16.6444842927       30.9195559886
  C        -2.1508077811       16.2221078259       33.1665299591
  C        -2.5249369735       13.9993827370       34.1410407933
  H        -2.0658778528       12.3789647198       32.9288797677
  H         5.9930734767       13.9345193928       17.5891689602
  H         7.5130578456       13.1145629530       18.3074931420
  H         5.8111799492       12.3971756085       18.3693179352
  S         3.9143524921        9.3716659880       14.5425369594
  C         3.7580407406        6.7428705399       14.0859878051
  H         4.1168848002       11.0773089995       29.7582522981
  H         4.1481494136       10.8684397617       31.4397922625
  C         5.3089616119        9.5040175883       30.3444287021
  H        -4.8704689898       11.1416278659       25.4874919912
  H        -5.7235299225       11.0647467283       27.0209719334
  C        -6.4492398481        9.7531417350       25.6798689673
  S        -1.7750556319       18.1194669653       31.6540963742
  N        -2.0706552219       17.6471754527       33.1562420486
  C        -2.5315192994       15.4404417013       34.2990155689
  H        -2.6844363000       13.3304382872       34.9112041404
  C         4.1239784337        8.6208760506       12.9320088993
  N         4.1476487882        7.2707877598       12.8920822004
  O         3.7391057249        5.6131577008       14.3433592129
  H         6.0952748937       10.1581419859       29.9567984154
  H         5.2894566428        8.7185462233       29.5844788076
  C         5.7657488467        8.6654169319       31.5411268725
  H        -6.2597026912        9.1070893326       24.7113156757
  H        -6.9218883127        9.0314649266       26.3789825367
  C        -7.4532834568       10.7973339514       25.1123355103
  C        -2.7913151411       16.1339860862       35.5434003028
  S         4.5510771519        9.5588536702       11.4977514829
  C         4.1329800392        6.3983236965       11.6891142916
  H         6.0797044792        9.4111578380       32.2522011998
  H         4.9302931638        8.2267368637       32.0923647118
  C         6.9116367792        7.6867485950       31.3349524824
  H        -7.0721829782       11.4100066956       24.3187168573
  H        -7.6905823776       11.4417906328       25.9597985795
  C        -8.7678964855       10.1531524698       24.6911101726
  H        -2.3797191148       17.1276776093       35.5114689886
  C        -3.3792208356       15.7890230289       36.7309795245
  H         4.7660101037        6.7928531207       10.9107733500
  H         4.5286554446        5.3337258599       11.8936174827
  C         2.7662805053        6.2355831129       11.1007355164
  H         7.5389173586        7.8271305904       32.2371022797
  H         7.5846752252        7.8639297740       30.4755813054
  C         6.4034693539        6.2526978152       31.1413949893
  H        -9.2798872418       10.6253017010       23.8547961373
  H        -8.5460012055        9.2340943701       24.1536342445
  C        -9.6766223165        9.9324556687       25.8463683278
  S        -4.0383466037       14.2872954077       37.1649516980
  C        -3.4930885039       16.8003331435       37.7809638556
  H         2.7554255078        5.3142403571       10.5949028718
  H         2.1257269591        6.2344146755       12.0053371144
  H         2.4476200778        7.0944763631       10.3924056748
  H         7.1157652271        5.4721550917       30.9182484351
  H         5.6604123108        6.1434276540       30.3455341135
  H         5.8915083696        6.0076495188       32.0694430188
  H        -9.2388071132        9.4061293671       26.7685204498
  H       -10.6081533824        9.4397760354       25.5499131084
  H        -9.9710284451       10.9289180714       26.1775577231
  C        -4.4401635539       15.0249569516       38.6954067725
  N        -4.0779202885       16.2697958192       38.8617163179
  O        -2.8720223163       17.8113174913       37.7107470857
  S        -4.9472121462       14.1302628039       40.1892969718
  C        -4.1418282120       16.9330547589       40.1346598986
  H        -4.3078461521       18.0125167163       39.9749365851
  H        -5.0283569400       16.6180399141       40.7234700347
  C        -2.7782786683       16.6768248900       40.9298945515
  H        -2.3965442021       17.6001399574       41.3200215099
  H        -2.8258156529       16.0059740450       41.7716142875
  H        -2.0446199398       16.3536972806       40.1810230432
