352
i=
  H         2.4068132642        2.4689019777       13.6954526193
  C         3.2367051686        2.2699283649       12.9520753272
  H         3.1059650834        1.3635285647       12.4353339201
  C         3.1200246192        3.2588698501       11.8097198882
  C         4.5331444291        2.2191508034       13.8093249954
  C         4.1701219279        3.0889457555       10.6895558859
  H         3.0166149728        4.2471256326       12.1660463476
  H         2.1725269827        3.1711253989       11.2978731780
  H         4.6896988903        3.2255514230       14.2476131675
  H         5.4440739198        1.9663082602       13.1800061642
  H         4.3794837897        1.5309334787       14.6213789028
  C         4.2652408168        1.7588007473        9.9723288143
  H         4.1023469841        3.8624868862        9.8892610889
  H         5.1624532550        3.1868751573       11.2587890941
  C         4.9827427569        1.8167670595        8.6201379585
  H         3.2903280709        1.3744524538        9.7550280813
  H         4.6899146377        0.9080014839       10.5191693638
  C         6.2954248810        2.5366162045        8.4968950077
  H         4.2251844835        2.3018034710        8.0616467028
  H         5.0491838726        0.8440209052        8.1058445366
  C         7.5700726499        1.7720918156        9.0572938689
  H         6.4984197440        2.7391733992        7.4482401786
  H         6.0968663394        3.5150931369        8.9669329134
  C         8.8864030237        2.6480561460        9.2290701670
  H         7.7853284499        0.9166945433        8.4145973041
  H         7.2780269079        1.3467265440       10.0487220394
  C         8.5060057925        3.9893530431        9.9083030020
  C         9.2611116248        3.3705789561        7.9835545640
  C        10.0254230038        1.9044280663        9.9138621855
  C         8.8373674514        5.0900053875        9.1232853978
  C         7.9542625404        4.3001074191       11.1366819647
  C         9.3176252392        4.7310981566        7.9493980639
  C         9.7887085562        2.7197348103        6.8352754082
  H         9.5827658136        1.6078695805       10.8895916028
  H        10.1202662486        0.9510736210        9.3693825057
  C        11.3049719628        2.6852190998       10.2227810829
  S         8.4039414895        6.5166127513        9.8792199566
  C         7.8328194641        5.6551677018       11.2385920780
  H         7.6366630086        3.6212369554       11.8780797749
  C         9.9587755124        5.3309522117        6.9083335190
  H         9.8421439084        1.6100156635        6.8420854340
  C        10.3079121568        3.3680576252        5.7582838665
  H        11.1058489819        3.6995338051       10.5044845669
  H        11.8407433628        2.7262398640        9.2446210940
  C        12.2281316809        2.0432700846       11.3039998116
  C         7.4404962941        6.3751646318       12.5039478507
  C        10.3695162502        4.7200543710        5.7316407549
  H        10.0957078222        6.3920277643        6.8562994048
  C        10.8059217105        2.9310850878        4.5460056933
  H        13.1657589824        2.4577746238       10.9842231903
  H        12.0789361267        1.0427876168       11.1714800833
  C        11.9088061315        2.4543505998       12.8013957538
  C         7.4437346521        7.7479586454       12.7928646160
  C         6.9602343675        5.5667367534       13.6844460394
  C        10.9433072061        5.3997945954        4.4579486067
  C        11.1454751632        4.0506396838        3.7678290145
  S        11.1854691776        1.4376099117        3.7823229747
  H        12.5250516853        3.3639516987       13.1494472430
  H        10.8396418521        2.7622713543       12.8956086294
  C        11.9624336750        1.3526961958       13.8788461373
  N         7.8983164096        8.7263281736       11.8525027900
  C         7.2971042714        8.3168129454       14.0438594893
  C         6.7390136765        6.0926756559       14.9144880579
  H         6.7304040510        4.5733272244       13.3656378015
  C        12.2757809646        6.0936096911        4.7081953029
  C         9.8975530134        6.2240802373        3.6996889487
  C        11.6132408831        3.6174438847        2.4842308631
  C        11.6950839328        2.2217912572        2.3849321001
  H        12.8166311415        0.7139175158       13.6376754252
  H        10.9860956537        0.8483618829       13.7895978079
  C        12.0936639924        1.9501553220       15.2648356174
  S         7.8104482016       10.1725379695       12.5649234295
  N         7.3651220794        9.7286104016       14.0318602602
  C         6.9898010978        7.5424381064       15.1551494451
  H         6.3558252166        5.5221218714       15.7433574070
  H        12.1679084039        7.0900852493        5.1957509421
  H        12.7031893539        6.2018837736        3.6992688387
  C        13.3872553480        5.2660272732        5.3588241904
  H         9.5415196238        6.9230957856        4.4191018730
  H        10.3433014740        6.7615796781        2.9840389442
  C         8.6427956546        5.4710536778        3.1408524769
  H        11.8291568654        4.3210159354        1.6729367240
  C        11.9111111618        1.4879960604        1.0838235816
  H        12.8209330762        2.7429283718       15.2520002175
  H        11.1325379199        2.4028673303       15.5708354520
  C        12.5118959045        0.9003293679       16.2021599106
  C         6.8303897444        8.0778297416       16.4561717962
  H        13.0672094219        4.9535780520        6.3819583223
  H        13.5304986261        4.4134181203        4.8145204650
  C        14.6644362977        6.0632097660        5.4629908416
  H         8.0837712020        4.9772041957        3.9738298360
  H         8.9690291786        4.7536107494        2.4140496054
  C         7.6001968393        6.3468341214        2.4221886172
  C        11.9725602331        0.0643011922        0.9437853049
  C        12.0778953722        2.3217531183       -0.1398455580
  H        13.4260200121        0.5418976100       15.8577556346
  H        11.8237378707        0.0401461171       16.2699633314
  C        12.7354015241        1.5318943908       17.5660206068
  H         6.9847430106        9.2102082580       16.4145546062
  C         6.5228317988        7.6597857039       17.7129981332
  H        14.4264548326        6.9763073093        5.9645073068
  H        15.0218432164        6.3479051058        4.5198894067
  C        15.7327081382        5.2215369631        6.1494322190
  H         7.1086043519        6.9709075131        3.0489993523
  H         8.0333965153        7.0201759605        1.7263155978
  C         6.6005611849        5.5621673545        1.6401451849
  N        11.6294295852       -0.8841231043        1.8793121942
  C        12.2025544295       -0.4800729524       -0.2919660795
  C        12.3141873797        1.7841530104       -1.4291246567
  H        11.8086550726        3.3726949589       -0.2319024079
  H        11.7331887260        1.4517150467       17.9918964771
  H        13.0295028259        2.6114778377       17.3621931688
  H        13.4777293998        1.1384955951       18.2885070669
  S         6.0514128423        6.1099526429       18.2252964686
  C         6.4346155163        8.6422985011       18.8113478558
  H        15.3396629222        4.9668929397        7.1641515609
  H        15.9533431776        4.2860199538        5.6996375167
  C        17.0377589979        6.0828884294        6.2977599959
  H         6.0247683483        4.8953817515        2.3114336574
  H         7.0732612939        4.9036667371        0.9094466225
  C         5.6432966225        6.4649142033        1.0019286909
  S        11.5904756595       -2.3281324012        1.2345315900
  N        12.0097753552       -1.8641461448       -0.3425139915
  C        12.4949518616        0.3088151810       -1.4882002329
  H        12.4464694343        2.4019001108       -2.3020417789
  C         5.8852755091        6.7892842035       19.8641898085
  N         6.0920135152        8.0908316237       19.9443089023
  O         6.6541195941        9.8430257697       18.6398508901
  H        17.3440779064        6.3347021854        5.3205443371
  H        16.7246063378        7.0245907820        6.7450327283
  C        18.0300899219        5.2350574024        7.1160483399
  H         6.2071559340        7.2043863157        0.5313724779
  H         5.0327865147        5.8358505451        0.3736098122
  C         4.6149695422        7.2238263829        1.9447263613
  C        12.6992793090       -0.4865083008       -2.6857570406
  S         5.5677610122        5.8254036195       21.3798387792
  C         6.1542093148        8.9099578030       21.1894811110
  H        17.5737788534        5.0861402675        8.1139639400
  H        18.2688951669        4.2761509677        6.6122854236
  C        19.3976387919        5.9088595009        7.3630930029
  H         4.9849806007        7.2421131364        3.0078309852
  H         3.7533865088        6.5664606679        1.8443260000
  C         4.2803297586        8.6659262804        1.7021803578
  H        12.3539086062       -1.5310245146       -2.6949247587
  C        13.3665152898       -0.1500570561       -3.8715708799
  H         5.5304967884        8.5057044422       21.9822127173
  H         5.7190490881        9.8214996026       20.8679073056
  C         7.5623433494        9.1671056125       21.6757248488
  H        19.8415864996        5.3824844015        8.2837251603
  H        19.3585001975        6.9853969132        7.3968786505
  C        20.2016198724        5.7629964856        6.1086045644
  H         5.0751013804        9.3801309073        1.9210673539
  H         3.8960276843        8.7996342697        0.7072155417
  C         3.0943152396        9.0714189146        2.5315190403
  S        14.0087876638        1.3222458212       -4.2808822870
  C        13.4613855820       -1.2958374874       -4.8254190019
  H         8.3815045286        8.8542146568       21.0817834896
  H         7.7039703309        8.6684256510       22.5733745556
  H         7.6704886770       10.2436826160       21.8846070832
  H        20.6657714313        4.7937101463        5.9658524406
  H        19.6991726606        6.0405231681        5.2542349276
  H        21.0496661817        6.4790544753        6.0054306493
  H         2.1662891020        9.0181409520        1.8970056554
  H         2.8720236412        8.6811164698        3.5045647561
  H         3.2619590142       10.1317631524        2.7781105897
  C        14.2940444408        0.5406553200       -5.8608703204
  N        14.0866395606       -0.7772673024       -5.9004983033
  O        13.1038491909       -2.4373981600       -4.6863485721
  S        15.1854378484        1.4316713556       -7.0510403601
  C        14.2420135893       -1.5092607597       -7.1556306141
  H        14.1953295495       -2.6415262789       -7.1453555247
  H        15.2396528566       -1.3114564539       -7.4721499865
  C        13.2272572339       -0.9982328153       -8.1676387963
  H        12.4528570413       -0.4288929448       -7.6907183499
  H        12.7469934172       -1.8284494699       -8.6425307696
  H        13.5817523201       -0.3256726342       -8.9614908222
  H        -1.8798662490       12.3341373096       16.9480646314
  C        -2.0861334879       13.1796603101       16.4076280896
  H        -1.2517998672       13.3291083958       15.7263677459
  C        -2.2751049084       14.4198725665       17.3263887266
  C        -3.3502225013       13.1134769898       15.4829944731
  C        -2.7631571852       14.0591699167       18.7123156981
  H        -1.3550728863       14.9945115057       17.4698872329
  H        -3.0086599704       15.2022553577       16.9591371549
  H        -3.3164352516       13.8907538600       14.7470528780
  H        -3.3541232027       12.1513404703       14.8864393624
  H        -4.3456465588       13.1701138477       15.9249992248
  C        -1.6407778899       13.4364460127       19.5129779405
  H        -3.7494365646       13.5206612784       18.6448950828
  H        -2.9165744936       15.0471454111       19.0167152548
  C        -1.7427540481       13.5878124624       21.0941521795
  H        -1.6135386531       12.3400328440       19.3066055882
  H        -0.6435692429       13.7122388108       19.3621738661
  C        -0.8025400771       12.8379465287       22.0454649026
  H        -2.7102815418       13.2070921309       21.3922421082
  H        -1.8203421866       14.6047369702       21.4246488551
  C         0.3302309842       13.7807714571       22.4451155420
  H        -1.3109992913       12.3420304548       22.8629531137
  H        -0.4192479499       12.0482389184       21.4736939138
  C         1.4879211842       13.0884668234       23.2944523563
  H         0.8790478043       14.0934541492       21.5851131074
  H        -0.0309762211       14.7006181169       22.9280165221
  C         1.8867456483       11.7755627740       22.5828591374
  C         1.1277928526       12.3109638194       24.5282669076
  C         2.7380161137       14.0297380429       23.3455319067
  C         1.7779744411       10.6993249549       23.4146954581
  C         2.2082774240       11.4701523121       21.2688481149
  C         1.2884574960       11.0119004376       24.6517991072
  C         0.5691905643       12.8251237726       25.6867278878
  H         3.0233637251       14.4751110562       22.3734474215
  H         2.2950060021       14.7882221449       23.9983899847
  C         3.9379437378       13.2816420622       24.0084005857
  S         2.0677337859        9.2057656344       22.6220023385
  C         2.4772396904       10.1469128285       21.1830553948
  H         2.4340176256       12.2449190743       20.5048857453
  C         0.9976630800       10.2927351849       25.8208813360
  H         0.6046022738       13.9087027256       25.6294228469
  C         0.2759417417       12.1960398321       26.8464559053
  H         4.3690048302       12.4868717157       23.4290920583
  H         3.6637601170       12.8399011992       24.9790222061
  C         5.1113046676       14.2435994429       24.2607152468
  C         2.9284463976        9.4621368619       19.9181413857
  C         0.3271869265       10.8183443590       26.9275660596
  H         1.2648468689        9.2212653345       25.6642074081
  C        -0.1334352343       12.6104638290       28.0976444612
  H         5.8290417075       13.6337226823       24.8206038766
  H         4.9479537525       15.1312210212       24.8997409152
  C         5.8772720029       14.6563215940       22.9879344007
  C         2.8237684589        8.0836584975       19.6837613889
  C         3.1560549515       10.3525275064       18.7018118940
  C        -0.0483938935       10.1692144621       28.2686140218
  C        -0.2973771148       11.5127270625       28.9191563987
  S        -0.4970462857       14.1517263590       28.8010019442
  H         6.6602470536       15.3301828500       23.3236799073
  H         5.2245105186       15.2661929229       22.2675265907
  C         6.5946678185       13.5782413623       22.2143441080
  N         2.5143801090        7.0744009420       20.6171145181
  C         2.9324166057        7.6084766732       18.3599695611
  C         3.3075210997        9.7814463369       17.4435209533
  H         3.5080862159       11.3714286776       18.8466350079
  C         1.1569069427        9.4983595852       28.9398041890
  C        -1.2482688314        9.2678424785       28.2401810468
  C        -0.7060668099       11.9267461945       30.1911509863
  C        -0.8418870601       13.2718027081       30.2586070195
  H         7.3071998376       14.1337763667       21.6550095978
  H         6.9796110375       12.9312948675       22.9669541467
  C         5.6527139169       12.9897162410       21.1290671876
  S         2.5633315724        5.6556137059       19.8587250572
  N         2.7623410072        6.1981343442       18.3401980754
  C         3.1532427068        8.3545977525       17.2099930803
  H         3.4445390475       10.4753976821       16.6583333251
  H         1.5705117057        8.7307337037       28.2113507509
  H         0.7851122849        8.9953791084       29.8300929031
  C         2.3718844689       10.3934036951       29.1216558701
  H        -1.1248460162        8.6836944977       27.3714560841
  H        -1.2934175592        8.6060067423       29.1473605055
  C        -2.6410240115        9.9466897169       27.9823736155
  H        -0.7272728246       11.2169116885       31.0129860198
  C        -1.0732760437       13.9129549708       31.5805718628
  H         4.7540335378       13.6128755207       20.8726426432
  H         5.1454658340       12.1175125301       21.6044511403
  C         6.3951028973       12.5010076685       19.9537039347
  C         3.1584512171        7.7119490992       15.9306042168
  H         2.6524244377       11.1765411577       28.3485390800
  H         2.0391737502       10.9972523073       29.9583058345
  C         3.5870465809        9.6255998037       29.6190972143
  H        -2.5053855872       10.6469124245       27.1284502502
  H        -2.8821168721       10.5300502014       28.8668673402
  C        -3.8282175529        8.9495642732       27.7341580788
  C        -1.2960681808       15.2853528942       31.7603846127
  C        -1.3373951243       13.1864065493       32.8503728174
  H         7.0069579323       11.6910639573       20.2746501523
  H         5.8418137321       11.9715238327       19.2257706403
  C         7.2691012929       13.5443202291       19.2086383676
  H         2.8206625845        6.7061869735       15.8339501373
  C         3.6174906333        8.1170873998       14.6828707587
  H         3.9649666494        8.9377756225       28.8730116851
  H         3.2897501623        9.0760032544       30.4915654480
  C         4.7101799726       10.5270722150       30.1740107717
  H        -3.6996952332        8.2372334980       26.9429138650
  H        -4.0215065869        8.4315943577       28.6907618375
  C        -5.2036615881        9.5580382841       27.4049481621
  N        -0.9800998490       16.2840719693       30.8400362756
  C        -1.7848656861       15.8652960705       32.9429201716
  C        -1.7200765705       13.7326925533       34.0076634970
  H        -1.0172726089       12.2122957121       32.8365195633
  H         8.2395457346       13.5668739665       19.6577743941
  H         7.3639524087       13.1358792282       18.1874927895
  H         6.7820027292       14.5507758605       19.0801342081
  S         4.1926978179        9.6341661370       14.2051735413
  C         3.6790748992        7.0868806972       13.6105832852
  H         4.7901274709       11.3711281769       29.5231801894
  H         4.3844174523       10.8478925526       31.1299931457
  C         6.0558073952        9.8149168322       30.0727434170
  H        -5.5791364411       10.2756918054       28.2004090130
  H        -5.8378305714        8.6625937458       27.3750319316
  C        -5.4268131706       10.3039465493       26.0072982839
  S        -1.3069459142       17.7443003232       31.4590121004
  N        -1.8992539069       17.2405968724       32.9038987846
  C        -2.0613191329       15.1590972893       34.1091573804
  H        -1.7319452561       13.1690838372       34.9010277731
  C         4.1000264753        9.0721969341       12.5434200165
  N         4.0887222783        7.7067075853       12.4642516395
  O         3.3960605699        5.8857446045       13.7802615855
  H         6.7546825303       10.5443726887       30.3392036792
  H         6.2097501610        9.5486056666       29.0841711401
  C         6.2921156267        8.6620327362       31.1170894302
  H        -4.6160168162       11.0323852127       25.7867446840
  H        -5.4117384098        9.5155619088       25.1946434686
  C        -6.8210660639       11.0753181961       25.9725017256
  C        -2.4924867693       15.8674195553       35.2404207134
  S         4.6677769559       10.0073329734       11.0692178318
  C         4.1612134594        7.0764754151       11.1424706456
  H         7.0846548254        8.8474781721       31.8485401149
  H         5.3743512612        8.6561926401       31.6727508933
  C         6.7035348837        7.3261131634       30.4123275547
  H        -7.1194586351       11.4107350985       24.9833657002
  H        -6.6992203360       11.9983139391       26.5774834695
  C        -7.9131163957       10.1625773588       26.5368124337
  H        -2.5836717707       16.9409026215       35.0730176888
  C        -2.9518297555       15.5018046126       36.4591155657
  H         4.9304825812        7.4473497736       10.4660990213
  H         4.5844183381        6.1119031646       11.4188576406
  C         2.8030652439        6.9491767250       10.4226450170
  H         7.6120479263        7.4606693465       29.8557393778
  H         5.9675543069        7.0493691837       29.7094624426
  C         6.8974118384        6.1197192242       31.3462210867
  H        -7.9213029805        9.1194754020       26.1355752151
  H        -7.7647171893        9.9651417263       27.6027571528
  C        -9.3380763551       10.6955785201       26.3711512056
  S        -3.2443435311       13.8960830969       36.9503800768
  C        -3.1841785085       16.5477710532       37.4752269041
  H         2.2184472653        6.0734013100       10.7850384581
  H         2.1882633323        7.7991098829       10.6341624230
  H         3.0004470295        6.9316228582        9.3238454178
  H         5.8922328099        5.8396701776       31.7156873690
  H         7.4454922367        6.4370923858       32.2150841159
  H         7.4616732383        5.3108078595       30.7995795876
  H        -9.3712981327       11.7960310943       26.5689457680
  H       -10.0046512046       10.1495450617       27.0951816612
  H        -9.6987461427       10.5294171893       25.3495181578
  C        -3.7726754268       14.5820585896       38.4684921606
  N        -3.7076633577       15.9511030120       38.5747538406
  O        -3.1461171181       17.7404689063       37.2925781055
  S        -4.4238716278       13.6592370841       39.8305897123
  C        -3.9161835058       16.7778959747       39.7452827372
  H        -4.2410217998       17.7945266663       39.5578709914
  H        -4.6673556101       16.2566069696       40.3385874178
  C        -2.5706339704       17.0115786734       40.4663447004
  H        -1.8104705171       17.3951799487       39.8175562195
  H        -2.8392140550       17.7049556369       41.2149412448
  H        -2.3231115849       16.0188010301       40.9537714731
