352
i=
  H         4.1735816439        0.6096117736       12.0950761406
  C         3.5079165521        1.5523972871       12.2093357380
  H         4.2584629431        2.3558536411       12.1452744570
  C         2.4872604217        1.7436055999       11.0295523561
  C         2.9373220255        1.6376166301       13.6287626962
  C         3.2481869822        1.9259928278        9.7276379758
  H         1.8264972857        2.4944508420       11.1318250520
  H         1.9542791200        0.8017631658       10.8502791239
  H         2.0732142610        2.3007408729       13.7852393114
  H         3.7232179998        1.9524105289       14.2873321884
  H         2.6842610520        0.6029969814       14.0403653093
  C         4.2712611626        0.8924806236        9.3454952836
  H         2.4470935557        2.0107170079        8.9562259587
  H         3.7563651967        2.8785626367        9.7078451050
  C         5.0318050191        1.3058158928        8.0662399407
  H         3.6881749273        0.0457545538        9.0279596171
  H         4.9609523671        0.6228280292       10.1649135548
  C         6.3347106162        2.0992381237        8.2187381433
  H         4.4823527563        1.8668963537        7.3472916357
  H         5.3545420804        0.4566918721        7.4499384503
  C         7.5400851176        1.3496332117        8.9173800528
  H         6.6201178311        2.4199248683        7.2263955153
  H         6.1554099447        2.9301015634        8.8599110927
  C         8.7640262604        2.3591130463        9.0716150416
  H         7.8464876363        0.4357154687        8.2951152639
  H         7.3623983325        0.9303600383        9.8687900096
  C         8.4167240525        3.7414027683        9.7458418749
  C         9.1458350790        3.1052190116        7.7942093739
  C        10.0314996993        1.6926724316        9.7326839129
  C         8.6896644666        4.8514360534        8.9397818050
  C         8.0727047419        4.0640211709       11.0471971811
  C         9.0877855309        4.4955078081        7.6806827931
  C         9.6387813592        2.4467147257        6.6067505364
  H         9.6376268563        1.2017308548       10.7292929380
  H        10.4692192919        0.9480326084        9.1043015374
  C        11.1506681650        2.6612225552       10.0925847028
  S         8.3494336070        6.3562849014        9.7556863842
  C         7.9491086882        5.4504278073       11.2051493264
  H         8.0204240580        3.3721456163       11.8538286893
  C         9.5834051357        5.0845677596        6.5691690241
  H         9.7249451906        1.3991914780        6.5719925149
  C        10.0654796019        3.1157386783        5.4638521247
  H        10.7913301444        3.5553028599       10.4435025991
  H        11.8240731594        2.8868519261        9.2998129351
  C        12.1412175322        2.0680072939       11.1242177424
  C         7.6107877566        6.1346416040       12.5260893748
  C        10.0951746917        4.4783529301        5.4172520840
  H         9.4750641603        6.1356338712        6.4770993109
  C        10.5765660044        2.7378336435        4.2506266617
  H        12.9867689207        2.6920319598       11.0769292630
  H        12.5228756714        1.1811101690       10.7007630591
  C        11.5173309955        1.8935821556       12.5242565530
  C         7.6668482945        7.5260479102       12.7689824607
  C         7.0515678390        5.2797586801       13.6394705686
  C        10.5265064371        5.2049739843        4.2308505428
  C        10.7748395794        3.8526706964        3.4533546822
  S        10.9719033575        1.3011330965        3.4649479426
  H        10.6772730403        2.5884141312       12.5738796685
  H        11.1283519239        0.9604650219       12.6838040155
  C        12.5723090577        2.2278380129       13.5608107066
  N         7.9342759438        8.5505593548       11.8264017792
  C         7.4510375426        8.0347378565       14.0420583318
  C         6.8405936680        5.8146385258       14.8967188363
  H         7.0927367474        4.1810843226       13.5171457679
  C        11.8355080012        6.0709207325        4.3216573341
  C         9.4728933005        6.1054882718        3.5487093350
  C        11.1482770557        3.4804064229        2.1314836931
  C        11.2012824252        2.0811023482        1.9757029866
  H        12.8147006898        3.2500045012       13.4617122017
  H        13.4399796537        1.6366226482       13.3714199536
  C        12.0944002038        1.9657193299       14.9996767353
  S         7.9558692312        9.9692010780       12.5390823968
  N         7.5172168657        9.4550556768       14.0340644758
  C         7.1034323227        7.2844605259       15.1850363069
  H         6.4330163923        5.1444030108       15.6189197302
  H        11.5533593190        6.9711678489        4.8117991537
  H        12.0803415367        6.4227365115        3.2957169519
  C        13.0273298037        5.3382498755        5.0021848003
  H         9.3885094580        6.9012659333        4.2095667352
  H         9.7663982329        6.4841967342        2.5890764766
  C         8.1474176080        5.3632701564        3.2013400061
  H        11.2534734201        4.2651514395        1.3526797846
  C        11.6098870195        1.3089794151        0.7208641421
  H        11.3459615470        2.6579587128       15.2846532008
  H        11.5990069934        0.9944122953       15.0449937173
  C        13.2415309722        2.0289239495       15.9664177739
  C         6.8066948489        7.9790316016       16.3831869285
  H        12.7390201756        5.0410852613        6.0447528955
  H        13.2289171772        4.4103643814        4.4470450975
  C        14.3409676984        6.1159018760        5.0730124598
  H         7.5137938361        5.1765103299        4.0793095870
  H         8.3033084864        4.3665653857        2.7674135361
  C         7.3602352357        6.1051000081        2.0774011049
  C        11.7610610767       -0.0715921977        0.6323895030
  C        11.8351159922        2.1426782494       -0.4779856939
  H        13.9848142321        2.6743942571       15.4878109593
  H        13.7009919457        1.0112955871       16.0558412698
  C        12.8832782051        2.4303219266       17.4019543786
  H         6.9493979900        9.0129029588       16.2679979188
  C         6.4580050662        7.5575159096       17.6476469464
  H        14.2061100598        7.0069169922        5.7132549544
  H        14.6934861524        6.4816692441        4.1516167525
  C        15.5936216495        5.3036157991        5.5770774752
  H         7.8654075462        7.0359123292        2.0588623928
  H         7.5302471499        5.5602052011        1.1563095361
  C         5.8847564912        6.3631358310        2.5162114087
  N        11.2784898165       -1.0376565384        1.5662027163
  C        12.2644675997       -0.6399726250       -0.5520669575
  C        12.2907891359        1.5166437239       -1.6394761776
  H        11.4956668059        3.1441998627       -0.5297384843
  H        12.3901207866        3.3839053590       17.3219797033
  H        13.7039427000        2.5755867217       18.0739735463
  H        12.2250177793        1.7408311256       17.8345641860
  S         5.9500469258        5.9933861466       18.0759857574
  C         6.3648192013        8.5172426504       18.7317455747
  H        15.6276389083        4.3222882478        5.1368972474
  H        16.5253124686        5.8918586232        5.4045168340
  C        15.5056227382        5.1455818660        7.0499579418
  H         5.8853255728        6.7470466289        3.5833281254
  H         5.3587475177        5.4480130169        2.3970404985
  C         5.2420064368        7.4282514391        1.5784301072
  S        11.7299446643       -2.5133838580        1.0212671040
  N        12.2680704118       -2.0540396260       -0.4764693305
  C        12.6194685979        0.0734987667       -1.7196924831
  H        12.4615759500        2.1343524886       -2.4641315372
  C         5.8242997255        6.6229599644       19.7705250182
  N         5.8767106211        7.9494264823       19.8539449996
  O         6.6895432287        9.6679394532       18.5432237270
  H        15.4205339200        6.0296507850        7.5115010288
  H        14.6890981284        4.4997783249        7.2735442429
  C        16.7766845703        4.5487323769        7.6323993876
  H         6.1069289132        7.9021908844        1.1582006207
  H         4.7184954667        7.0740031325        0.7744152489
  C         4.2986486323        8.4046969642        2.3264208975
  C        12.8909248513       -0.6251012800       -2.9408324603
  S         5.4787304926        5.7388600172       21.1716614931
  C         5.7856389240        8.7525998521       21.0886326387
  H        16.6133497224        4.1627982472        8.6089044478
  H        17.0587099529        3.6378599191        7.1684916412
  C        17.9932004353        5.4782132899        7.7203748098
  H         4.8597211189        8.7119590031        3.2761459264
  H         3.3332419570        7.9811134507        2.5968277520
  C         4.0912884768        9.6555124783        1.5179121269
  H        12.5289280844       -1.6230076611       -2.9761207060
  C        13.3993824310       -0.1804907372       -4.1320436927
  H         5.2691430015        8.3349234140       21.8739176630
  H         5.2833735783        9.6922245168       20.8482969734
  C         7.2053019915        9.1980986018       21.5117801718
  H        18.5159795056        5.1179413515        8.5461587284
  H        17.5942194253        6.4821089692        8.0416797920
  C        18.9576294070        5.4915508151        6.5520124822
  H         3.4841328882       10.2936929138        2.1670156955
  H         5.0241158709       10.1230125225        1.3927925041
  C         3.3619092806        9.3808243379        0.2630394471
  S        14.0387517509        1.3438213125       -4.5147744748
  C        13.4115571213       -1.1671451604       -5.2419832096
  H         7.5899721531       10.1746711379       21.2412919908
  H         7.9701798645        8.5199138699       21.3224712025
  H         7.2003337689        9.2007834342       22.5772550682
  H        18.4965897346        5.2420754489        5.5608651587
  H        19.4611136202        6.3976481764        6.5040737491
  H        19.6948644632        4.7240031291        6.6847943524
  H         3.0579863987       10.3473475466       -0.1264537873
  H         4.0863279685        9.0765632731       -0.4504131598
  H         2.6040122630        8.5892526148        0.2893279838
  C        14.2107947258        0.6829587575       -6.2001157973
  N        13.8897543321       -0.6167638603       -6.3329291149
  O        12.9760175647       -2.2941161617       -5.0824201508
  S        14.7021270276        1.5654352482       -7.6243810524
  C        13.9491916923       -1.3527395126       -7.6494384873
  H        14.3355421292       -2.3801375709       -7.5412478877
  H        14.5845980185       -0.9413684211       -8.4367621320
  C        12.5609935935       -1.4668012232       -8.2794495468
  H        11.6718051057       -1.4431661942       -7.6878767615
  H        12.5739189061       -2.3521130547       -8.9612575391
  H        12.3300822995       -0.8007370794       -9.1558625277
  H        -3.5319772510       14.3284603216       16.0599268954
  C        -3.1352687223       13.3401985208       16.0204485106
  H        -4.0017571987       12.6866050013       16.0548654187
  C        -2.2526401386       13.1358853755       17.1946278303
  C        -2.5237410222       13.0455248349       14.6521529528
  C        -2.8990394942       13.2335681730       18.5915515439
  H        -1.7446720578       12.1700369072       17.2175987942
  H        -1.4067998818       13.8413359481       17.0045049151
  H        -1.5524270962       13.4802745328       14.5760467794
  H        -2.5092476004       12.0345559291       14.2591562545
  H        -3.1350492412       13.6123360759       13.9401428144
  C        -1.9174080732       12.9415279805       19.7216753483
  H        -3.8179375182       12.6497283850       18.7269523731
  H        -3.3550161711       14.2181654741       18.7378062294
  C        -2.3938507070       13.2333475221       21.1305790402
  H        -1.6091354626       11.9339953836       19.7986528280
  H        -1.0051692524       13.4540340198       19.4268108938
  C        -1.4543102083       12.7139097613       22.2596615407
  H        -3.3716787184       12.6740810504       21.3707720824
  H        -2.6855687655       14.2719376220       21.2405080210
  C        -0.1203674116       13.3685875122       22.2259875289
  H        -1.9848512843       13.0210475050       23.1515047306
  H        -1.4558456335       11.6286170663       22.3658957184
  C         0.9879402668       12.6428009896       22.9887540526
  H         0.1672235571       13.5055466294       21.1444052109
  H        -0.1191767647       14.3681961563       22.5767235148
  C         1.3351291431       11.3331671414       22.3750253042
  C         0.5604365263       11.9688357124       24.2886431141
  C         2.1652272165       13.6762313380       23.2269878182
  C         1.1690499624       10.2103127039       23.1925982369
  C         1.8153557869       10.8879900468       21.1002346786
  C         0.5963298727       10.5949949899       24.4045296824
  C         0.1582032568       12.5767040404       25.4602546117
  H         2.5518177684       14.1060508946       22.2613047747
  H         1.9332196419       14.4975107903       23.8759714098
  C         3.5454244040       13.0675345235       23.7959417149
  S         1.5813812055        8.7304988525       22.4517559425
  C         1.8719008917        9.5428149436       20.9649501350
  H         2.1538175836       11.6424472727       20.4388408103
  C         0.1455762514        9.9436412978       25.5026318058
  H         0.0738146262       13.6594525116       25.3854186479
  C        -0.2266542179       11.9361784241       26.5706982192
  H         3.8122325923       12.5225416280       22.9119384221
  H         3.5095062736       12.3209986238       24.7013588842
  C         4.5139745882       14.1999069509       24.0922410739
  C         2.4112640892        8.8865139316       19.7325653885
  C        -0.3269374213       10.5529696270       26.6560872916
  H         0.0870598849        8.9168115636       25.5392769218
  C        -0.6405403403       12.2866166324       27.8754264291
  H         5.2461070814       13.7879622198       24.7532712015
  H         4.1642312803       15.0181561067       24.6683694748
  C         5.2697557760       14.4579712812       22.7671682337
  C         2.3748510124        7.5244895155       19.5116515965
  C         2.8032603313        9.6921256584       18.5516919223
  C        -0.7479993003        9.8385651810       27.8765878513
  C        -0.9220456263       11.1623573519       28.6663169090
  S        -0.8624454968       13.7196008714       28.6746115194
  H         6.0274428088       15.2364158405       22.8576448542
  H         4.7041210278       14.8229535237       21.9192544757
  C         6.0571609885       13.2176309552       22.3693282047
  N         2.1164515108        6.5302384129       20.4818435147
  C         2.5525112474        6.9090776339       18.2808604404
  C         3.1724520908        9.0905991537       17.3659455316
  H         3.0111397008       10.6820125507       18.6837197911
  C         0.3876244949        9.0057523016       28.6058646618
  C        -2.0128270762        9.0146208614       27.6084983198
  C        -1.4372998122       11.5373175165       29.9369405102
  C        -1.3556088227       12.9030701041       30.1272991530
  H         7.1134450027       13.3860157658       22.3321114236
  H         5.9650282344       12.2741615284       22.9724682395
  C         5.7360967033       12.7593230824       20.8918014862
  S         2.1077737206        5.0697462826       19.7876887901
  N         2.2879718977        5.5290061337       18.2628235251
  C         3.0813845711        7.6448958602       17.1748290244
  H         3.5122205660        9.6839843865       16.6034345341
  H         0.6572267913        8.1154379041       28.0061359193
  H         0.0195544828        8.5249925776       29.5595588050
  C         1.6279182862        9.8658208289       28.9560606347
  H        -1.8561092823        8.2864750311       26.8052439040
  H        -2.2618156727        8.4852242700       28.5159693437
  C        -3.1412046025        9.9218252802       27.1706725615
  H        -1.8674222663       10.7736236502       30.5582530808
  C        -1.7698993942       13.5766505863       31.3854525360
  H         4.6747320313       12.5684332413       20.6740906324
  H         6.2253346328       11.7906611245       20.6389347199
  C         6.3801242244       13.7998147087       19.9257842460
  C         3.3574731627        6.9946076572       15.9348995643
  H         2.3162667255        9.7920310107       28.1672937587
  H         1.4292379338       10.9566108416       29.0449404378
  C         2.3291752158        9.3363743692       30.2546440432
  H        -2.8209245237       10.2692577830       26.1817743485
  H        -3.3801933839       10.7885258348       27.7714894526
  C        -4.4276596259        9.1861132235       26.9602595138
  C        -1.8891261071       14.9904228370       31.6069778385
  C        -2.2145791733       12.8072358638       32.6504398308
  H         5.7792183995       13.7675138792       19.0178625334
  H         6.2591126272       14.8745614757       20.1457468770
  C         7.9061265143       13.5507626437       19.5997814722
  H         3.1620755646        5.9306318996       15.9785431147
  C         3.6762224868        7.3490541723       14.6596109302
  H         2.2660121794        8.2249421763       30.1896433639
  H         1.7379162093        9.5340131526       31.1765314933
  C         3.7933724899        9.6841882764       30.4147702410
  H        -4.4971929966        8.8390711290       25.9055474216
  H        -4.3891667387        8.3172397459       27.6746865336
  C        -5.6280310315       10.1197346966       27.2349884374
  N        -1.6122375287       15.9333190053       30.6149169094
  C        -2.2076973332       15.5442978975       32.8871336459
  C        -2.5549935209       13.4495828214       33.8500035125
  H        -2.1833059069       11.7141855856       32.6681070451
  H         8.4882085138       14.4336603848       19.2370800327
  H         8.5439485989       13.2463610868       20.4691467483
  H         8.0437143981       12.7958106691       18.8225372986
  S         4.0096291269        8.9663610476       14.1230717568
  C         3.7338801807        6.2846930641       13.6313193148
  H         3.9282801250       10.7599343325       30.0322133998
  H         4.0709693945        9.8300329247       31.4644716864
  C         4.7684442130        8.6965972201       29.7739621656
  H        -5.4942495336       11.0720934053       26.7041059753
  H        -5.6411392144       10.3037185098       28.2904643601
  C        -6.9737124181        9.5747550884       26.7940223021
  S        -1.7357433579       17.4593162181       31.2255571428
  N        -2.1182050441       16.9699680888       32.7581381405
  C        -2.5857113882       14.8816672430       34.0558719900
  H        -2.9128010103       12.7751790216       34.6025095264
  C         4.1557563314        8.2392332302       12.4824857238
  N         4.1265760796        6.9137535090       12.4785571853
  O         3.6550579052        5.0840795612       13.8701358407
  H         5.6518645352        9.3247067356       29.4375336373
  H         4.2783303219        8.2366606659       28.9598138664
  C         5.3383658102        7.7197619101       30.8136189329
  H        -6.9662297175        8.4901220519       27.1161210837
  H        -7.6681862732       10.1381326738       27.4071363805
  C        -7.2604406315        9.9694608835       25.3360171097
  C        -2.9134266510       15.5489499796       35.2454074709
  S         4.7178465666        9.0518005155       11.0448003753
  C         4.1217912519        6.1354557729       11.2757525285
  H         5.7635982094        8.0680089441       31.7413281940
  H         4.5498117698        6.9726675689       31.0549048695
  C         6.3287015101        6.7532300177       30.1693172475
  H        -6.5200523342        9.5966402413       24.7109858407
  H        -7.1170469231       11.0356385115       25.2710795313
  C        -8.6356444609        9.5236269467       24.8215723210
  H        -2.5402560316       16.5327373656       35.2331768265
  C        -3.5119410531       15.1166192010       36.3781154839
  H         4.9363063005        6.3866287843       10.6131179152
  H         4.3239722467        5.0947970103       11.6279178343
  C         2.8249129719        6.2491174777       10.4695957895
  H         7.2952063484        7.1637921344       30.1038377118
  H         5.8050268456        6.6457293641       29.2262816514
  C         6.3684678204        5.3993731284       30.9168095350
  H        -8.8519404529       10.0953677474       23.8957893451
  H        -8.6181296027        8.4484882189       24.6095037281
  C        -9.7693735480        9.7749846088       25.8145688828
  S        -4.2944791192       13.5518805381       36.7259147090
  C        -3.6071959372       16.1608803501       37.4103394740
  H         2.4581730641        5.2770124674       10.1829985017
  H         2.0540608711        6.5236219886       11.1371280869
  H         2.9934268967        6.9346979906        9.6406083716
  H         7.3382520837        5.0135500571       30.7107690270
  H         5.6690321542        4.6494055908       30.5485133766
  H         6.2134432623        5.4286967701       31.9974589491
  H       -10.7828468355        9.8030179096       25.4406168959
  H        -9.6883551700       10.7207058998       26.3127241307
  H        -9.6583955431        8.9752600071       26.5319491668
  C        -4.5114593652       14.2790735796       38.3205611069
  N        -4.2482455073       15.5871061944       38.4229884406
  O        -3.1168282221       17.3108448488       37.4280482266
  S        -5.4386959320       13.4691630573       39.6747160154
  C        -4.3672513260       16.3139618500       39.6520844797
  H        -4.3647126539       17.4537824705       39.5334748802
  H        -5.3195352700       16.2533588769       40.2545978059
  C        -3.2117733800       15.9223833723       40.5474476678
  H        -2.3083594105       16.3409736913       40.0808604976
  H        -3.4506858268       16.2030385894       41.5729620313
  H        -3.1460459652       14.8328611116       40.5500693848
