352
i=
  H         4.7266926032        1.1705736860       12.6537968729
  C         4.1096678538        2.0351371282       12.9196791680
  H         4.8877661685        2.7977050482       12.9487746676
  C         3.0607875361        2.2874346331       11.7957029255
  C         3.4322248375        1.7442796331       14.2650155112
  C         3.8495552306        2.6711905197       10.4851293345
  H         2.4549095254        3.1262186688       12.1891606663
  H         2.3389049658        1.4856422866       11.7741630615
  H         3.2179652555        0.6799142064       14.1665638737
  H         2.5753408310        2.3972172542       14.3511336907
  H         4.1308393759        1.7790596533       15.1014732122
  C         4.5284655458        1.4775682751        9.8407198518
  H         3.0585639742        2.8837802271        9.7916658236
  H         4.5354567494        3.5163759360       10.6345791492
  C         5.1320220748        1.8457006345        8.4510217187
  H         3.8312296372        0.6859338125        9.6384983178
  H         5.3715774436        1.1017833160       10.4903803463
  C         6.5185041529        2.6187521426        8.6192473190
  H         4.3516812732        2.2656503505        7.8425069354
  H         5.3752157272        0.9421739025        7.9499683732
  C         7.7769788244        1.8228573945        9.1062705573
  H         6.8137793212        2.9281483167        7.6431935983
  H         6.3159251362        3.4919693490        9.2016621422
  C         8.9811029679        2.6562315944        9.3909444027
  H         8.1656856626        1.1145132326        8.3074235607
  H         7.6315942052        1.2712949149       10.0348501238
  C         8.6479310625        4.0002853933       10.0697602054
  C         9.5427385154        3.3708420197        8.1625401547
  C        10.0609154692        1.8201840280       10.2672696561
  C         9.0312761940        5.0707591587        9.2741221804
  C         8.1129433509        4.4248916032       11.3450326890
  C         9.5315530062        4.6883609888        8.0732418887
  C        10.0555365886        2.7874413636        7.0091028869
  H         9.4855572941        1.1578852922       10.9073714048
  H        10.5857617512        1.2390749217        9.5498318001
  C        11.0336094921        2.6925997471       11.1044487242
  S         8.6628543328        6.5874276502        9.9442668405
  C         8.0595682686        5.8419437849       11.4310726948
  H         7.9283002987        3.6185155957       12.0255499047
  C        10.0554769243        5.3547589758        6.9985562465
  H        10.0402307750        1.6961313444        7.0307644612
  C        10.4336486757        3.3940703035        5.8647224774
  H        10.4711842839        3.0616687736       11.9739364462
  H        11.5635517041        3.4937483386       10.5481196053
  C        12.1824820101        1.9517533354       11.8419544317
  C         7.5506134424        6.4788046960       12.6993353402
  C        10.5429288090        4.7515542022        5.7831233253
  H         9.9617558785        6.3947728075        6.9140197321
  C        10.8117593825        2.9661693747        4.5979070679
  H        13.1774782694        2.2131176552       11.4608177838
  H        12.1226525067        0.9028939602       11.4826246855
  C        12.1438777944        2.1019276769       13.3691778273
  C         7.5353387405        7.8889434473       12.9832933372
  C         7.1050693179        5.6750944475       13.8217345030
  C        10.9302670829        5.4489025019        4.4963045017
  C        11.1689170727        4.0400497125        3.8146294852
  S        10.8686108983        1.4443093656        3.8691753569
  H        11.7947084546        3.1056306630       13.5311744424
  H        11.3568967849        1.4021405487       13.7237014174
  C        13.5331082889        1.7261934351       14.0073526034
  N         7.8013113118        8.8459920810       12.0072889602
  C         7.2649811232        8.4448102631       14.2007222181
  C         6.8670388956        6.2649280821       15.0512600386
  H         7.0746096242        4.5898306561       13.8349766970
  C        12.2295614034        6.2932063276        4.6364147278
  C         9.8510461744        6.2053077087        3.7625068968
  C        11.3760985779        3.6148666177        2.5105958905
  C        11.3055514181        2.2301088463        2.4285412051
  H        14.0777118683        2.7049192716       14.1274158282
  H        14.1752599815        1.1684192118       13.3206156408
  C        13.4202683423        0.9510376142       15.3529082072
  S         7.7495721362       10.3674765745       12.7382987418
  N         7.2950132065        9.8273084050       14.2007873500
  C         7.0027094281        7.6843938651       15.3866189158
  H         6.6746603423        5.5107172878       15.8280706975
  H        12.0445187913        7.1712059028        5.1630041392
  H        12.5480864984        6.5406478686        3.6341326456
  C        13.3381087440        5.5735751410        5.2642298381
  H         9.7158808855        7.1883800352        4.3076118352
  H        10.2414556576        6.5967461405        2.7882424709
  C         8.4947290495        5.4073199827        3.5813454782
  H        11.6573934603        4.3467724200        1.7639181762
  C        11.7437156684        1.4510639213        1.1536539163
  H        13.1295301151       -0.0939169961       15.1864584506
  H        14.3723187558        0.8604430083       15.8459691628
  C        12.3503269853        1.5262809375       16.3573403781
  C         6.8875947864        8.3325920411       16.6204022150
  H        13.0797087257        5.2180969767        6.2013285227
  H        13.6450481686        4.6443682967        4.6836883124
  C        14.5621166757        6.4713019385        5.2587261694
  H         8.0817922325        4.9452618077        4.4721595148
  H         8.7879124745        4.6658629640        2.8236362777
  C         7.5835150740        6.4074852542        2.9314237808
  C        11.9427929633        0.0483687816        0.9986427974
  C        11.7805669034        2.2266952587       -0.1172682375
  H        11.9034444972        0.6426468036       16.7303684274
  H        11.5333495526        2.0556798173       15.9436317758
  C        12.9175965103        2.3686542791       17.5106877382
  H         6.9450635821        9.3585509459       16.5474001703
  C         6.5720367166        7.7914699032       17.8419805243
  H        14.4653273145        7.2309498537        6.0954087643
  H        14.6755649537        7.0528958495        4.3135453375
  C        15.9161871849        5.8452462049        5.4916773352
  H         7.5801388124        7.3083750646        3.5725568044
  H         7.9782186915        6.6228364340        1.9735465510
  C         6.1958905979        5.7921925069        2.7903032031
  N        11.6825096027       -0.9063850014        1.9489302928
  C        12.1481147475       -0.5209990472       -0.2240290563
  C        12.2801816678        1.6692816557       -1.2442167862
  H        11.5082539890        3.2368183898       -0.1370318211
  H        13.2117822479        1.7033337953       18.3984375185
  H        12.3112810900        3.1763715451       17.8545155644
  H        13.9107931069        2.7645922837       17.2273360719
  S         6.1672611791        6.1990747708       18.3877994752
  C         6.4516820054        8.7798015175       18.9213717077
  H        16.0047942791        4.9383159128        4.9268463704
  H        16.7615585670        6.4257321363        5.0833305142
  C        16.1406765752        5.5895941800        7.0095070739
  H         5.7290756490        5.8970314259        3.7478498293
  H         6.3317015763        4.7515560381        2.4911328160
  C         5.3027699130        6.5033501575        1.7303031896
  S        11.9511192903       -2.3371046066        1.3847188485
  N        12.1080966342       -1.9019591667       -0.1225511463
  C        12.4195830664        0.2195620747       -1.4104171853
  H        12.4574752901        2.2667706562       -2.1461373116
  C         6.1121629564        6.8678889449       19.9953396422
  N         6.1388034432        8.2405241153       20.0717368984
  O         6.5760764817        9.9590058424       18.7297271065
  H        16.1942888996        6.5694632981        7.5622999212
  H        15.3033567992        5.0208883631        7.4096401512
  C        17.4780499233        4.8267140328        7.4030510844
  H         5.7616851433        6.1478651205        0.7077684141
  H         4.2953949218        6.1333016292        1.9706148838
  C         5.1767220848        8.0136140934        1.8933336020
  C        12.7730911030       -0.5533679082       -2.5654310122
  S         5.5631640055        6.0144690051       21.4615513215
  C         6.1247231321        9.0613618978       21.3306427459
  H        17.4302653598        4.1853126924        8.2237354185
  H        17.6798618911        4.0046432696        6.6380619016
  C        18.6363702683        5.7472551295        7.6948605643
  H         6.1055888746        8.6292081152        1.6643025671
  H         4.9884434973        8.1355885331        3.0039087564
  C         3.9534374594        8.4962235912        1.1937456297
  H        12.5903715722       -1.5858525390       -2.4037913768
  C        13.2840657968       -0.2175350174       -3.7789514299
  H         5.4001445130        8.6582621100       21.9967141174
  H         5.8067103966       10.0439408980       21.1445205083
  C         7.6131314276        9.0142669131       21.8912891977
  H        19.1579973304        5.2518892934        8.4019150304
  H        18.3299776056        6.6867197599        8.1255213692
  C        19.5125813114        5.9554425893        6.5178069250
  H         3.8672086642        7.8202442197        0.3254755132
  H         3.0601378190        8.2875872830        1.8625566732
  C         4.0461004487        9.9702679643        0.7530361863
  S        13.8737424995        1.3961431894       -4.1373146290
  C        13.3490916016       -1.2349067582       -4.8848480203
  H         7.9207845108        8.0473756595       22.2440884143
  H         7.6865581385        9.7754387896       22.7116948240
  H         8.3811272107        9.3265189914       21.2310299863
  H        19.4989305264        5.0376183578        5.8857500161
  H        19.1691214378        6.7568080722        5.9131421366
  H        20.5924821288        6.0342477007        6.9095478344
  H         4.3301648902       10.6810216375        1.4610982102
  H         4.5936152372       10.0411841963       -0.2027982551
  H         3.0158441625       10.2371706270        0.4540920512
  C        14.0781370760        0.6690732017       -5.7922984727
  N        13.9141316428       -0.6513677915       -5.8927749906
  O        12.8940714766       -2.3905567974       -4.7991780970
  S        14.6585678180        1.5232651952       -7.2651095859
  C        14.1540570342       -1.4366729920       -7.0854366528
  H        14.3470098361       -2.4643608507       -6.8166985337
  H        15.1250443719       -1.1186726733       -7.5636928414
  C        12.9659639961       -1.2412431336       -8.0064411956
  H        13.3566355711       -0.7541139650       -8.8783208189
  H        12.0981311089       -0.6888030565       -7.5205894678
  H        12.5492936956       -2.2171536981       -8.1820888496
  H        -2.7960955996       15.4042837306       16.3070960329
  C        -2.8208231273       14.3006084788       16.4651064069
  H        -3.7228936501       14.0153271109       16.9362294545
  C        -1.6081486600       13.8330061210       17.2991436135
  C        -2.8212366274       13.5437407628       15.0201710371
  C        -1.6434523921       14.3336469228       18.7279065378
  H        -1.6100572761       12.7338491014       17.3642393335
  H        -0.6891958108       14.1548105562       16.7958358938
  H        -3.6071751578       12.7571030650       14.9858363299
  H        -3.2085556907       14.1585029551       14.2233383176
  H        -1.8915665574       13.3541503484       14.5780658854
  C        -1.7103163229       13.1978777059       19.8265480284
  H        -2.4923119569       14.9427665176       18.7267790781
  H        -0.7830121156       14.9304194326       18.9230623935
  C        -2.1573326990       13.6017429962       21.2658411534
  H        -2.4433027184       12.3751754662       19.5673535245
  H        -0.7729226153       12.7235919013       19.8992443994
  C        -1.2921079205       13.0151885333       22.4215288571
  H        -3.1852870635       13.3704748867       21.4398753071
  H        -2.1256323261       14.6845983074       21.2167441236
  C        -0.0340715789       13.8348006329       22.7129916371
  H        -1.8186552880       12.8335368066       23.3382042639
  H        -1.1253451224       11.9900457766       22.1318811717
  C         1.1344695901       13.0475067363       23.4141909841
  H         0.3807044283       14.1385042588       21.8361047936
  H        -0.2976673102       14.6959435808       23.3461643136
  C         1.4998718358       11.6923553784       22.7511953006
  C         0.6135358314       12.4074454426       24.6907291686
  C         2.3734348008       13.9737150431       23.6749689581
  C         1.2619226252       10.6669270760       23.6324269820
  C         2.1764575848       11.2958556993       21.5367818889
  C         0.7033706515       11.0655955993       24.8399008286
  C         0.1781485073       13.0617378560       25.8350313488
  H         2.5397004612       14.4926889673       22.7298966095
  H         2.2811889007       14.7358288464       24.5291063489
  C         3.6342456323       13.2346023701       24.0248752319
  S         1.7670608246        9.1028143729       22.9666773009
  C         2.2936334167        9.9185074644       21.4688636739
  H         2.5759723531       12.0691168153       20.8690486115
  C         0.3161102949       10.4562995736       26.0033135118
  H         0.0828728037       14.1837001859       25.8361463832
  C        -0.2599042810       12.4725490364       26.9945837131
  H         3.8186914017       12.4015373061       23.2899427816
  H         3.4724726639       12.8635182803       25.0161293821
  C         4.8208000456       14.2315633445       24.0250257323
  C         2.7802213078        9.2352364204       20.1954806054
  C        -0.2081391322       11.1187778053       27.1149650476
  H         0.5305394794        9.4449449001       26.0146960547
  C        -0.7583110609       12.9122741305       28.2140436381
  H         5.7040668014       13.7914601031       24.4891454557
  H         4.6323000873       15.1963907363       24.5762208383
  C         5.3139712309       14.4406373150       22.5930884967
  C         2.6693667505        7.8982733837       19.9684238854
  C         3.1857516467       10.0821425801       19.1172396917
  C        -0.6753386930       10.4885309454       28.3204050474
  C        -1.0346324728       11.8306555875       28.9792224595
  S        -0.8686119884       14.4123598851       29.0852864455
  H         5.7979113442       15.4702442476       22.4578852544
  H         4.4640156476       14.4532703575       21.8911179616
  C         6.4015008173       13.4303358266       22.3160295340
  N         2.2548048308        6.9303069430       20.8911277057
  C         2.8376393399        7.4463373471       18.7238696774
  C         3.4130257861        9.6215591357       17.8558205483
  H         3.3115363360       11.1169274675       19.1880505559
  C         0.5050452214        9.7685273422       29.0068162213
  C        -1.9746435194        9.6916005348       28.1211140593
  C        -1.5479100489       12.1037748739       30.2726949136
  C        -1.5294080352       13.4915561363       30.4368679992
  H         7.4132464227       13.8238358934       22.4917631369
  H         6.1805994439       12.5753244088       22.9372017803
  C         6.3513162916       12.8520946205       20.9111358576
  S         2.1796235957        5.5729288089       20.0823328975
  N         2.6310593617        6.1207780742       18.6438406995
  C         3.1784703652        8.2109401187       17.5810803899
  H         3.8438211071       10.2778636816       17.0791062819
  H         1.1558351834        9.2047907825       28.3130095310
  H         0.0679802060        9.1774266880       29.7749796760
  C         1.5571114040       10.7151130007       29.5579118484
  H        -1.7668600152        9.0590537370       27.2105942941
  H        -2.1573283210        9.1476291709       29.0471540966
  C        -3.1947105913       10.5178623535       27.8072846084
  H        -1.7813589587       11.2958064795       30.9249216809
  C        -1.9330812765       14.2121383933       31.6953070972
  H         5.2881232249       12.4868699529       20.8121973872
  H         7.0829438428       12.0417981507       20.8997218928
  C         6.6788052215       13.8775166317       19.8316772776
  C         3.4319853163        7.5144769822       16.3364256144
  H         2.1275438425       11.2674484697       28.7996186534
  H         1.0892166983       11.3484307913       30.3224135704
  C         2.6603298023        9.9729357326       30.3178442276
  H        -3.0068852760       11.3674128087       27.0412522685
  H        -3.5663105644       10.9507678992       28.7599972632
  C        -4.3876901060        9.6872646995       27.3879895762
  C        -1.9921835123       15.6049766781       31.8911184012
  C        -2.1595312379       13.3421524298       32.8763535903
  H         6.0268993680       14.7059459973       20.0284285176
  H         7.6136438703       14.2555408219       20.0061382262
  C         6.4306486237       13.2044623073       18.5190439833
  H         3.2938135436        6.4788734994       16.3843631028
  C         3.7317858043        7.9241097606       15.0641322868
  H         2.5712147683        8.9358526089       30.1731936264
  H         2.4611281327       10.0690182485       31.3374261111
  C         4.0919975407       10.6064309551       30.2521344244
  H        -4.0100841975        9.0599646745       26.6186039519
  H        -4.6590854859        9.0587367090       28.1797739192
  C        -5.4761030067       10.5959375387       26.7904589670
  N        -1.7133703710       16.5673395406       30.9272063907
  C        -2.1550380799       16.1314491445       33.1250380930
  C        -2.4887349885       13.8700789035       34.0920699099
  H        -2.1358279275       12.2429464281       32.7455308794
  H         6.5798912388       13.9051339035       17.6708585912
  H         7.1373732915       12.3371146563       18.3854873479
  H         5.3647724296       12.9550957054       18.3649431619
  S         3.9416034207        9.5772552671       14.4661499655
  C         3.8438597963        6.8414057420       14.0506414917
  H         4.0927878550       11.2161479031       29.4124448584
  H         4.2152951187       11.3291356573       31.0986198788
  C         5.1817435372        9.5855989378       30.0697545797
  H        -4.9831799916       11.2830421101       26.1317272104
  H        -5.9091504565       11.1668133441       27.6604354390
  C        -6.5437631619        9.8765362715       26.0050158041
  S        -1.6606133083       18.0102091726       31.6385428261
  N        -2.2398437149       17.5082723650       33.1324971802
  C        -2.4695799211       15.3867134703       34.2686971167
  H        -2.6722522735       13.2224246722       34.8950959951
  C         4.2073830627        8.8614290863       12.8949323021
  N         4.1160512636        7.4821743611       12.8866596873
  O         3.6895087186        5.6359524737       14.2623413761
  H         6.1537629809       10.1083984972       29.9564948292
  H         5.0960332763        9.0979964140       29.0696016696
  C         5.3529634081        8.7156222975       31.2547003870
  H        -6.1003870034        9.1557657555       25.1864498595
  H        -7.0986568457        9.2398873560       26.7020743499
  C        -7.5319738010       10.8828547379       25.6113141180
  C        -2.7464453808       16.0940070387       35.5206387945
  S         4.3744132646        9.6208850989       11.2984200715
  C         4.2655526252        6.7017929451       11.6794063521
  H         5.5160470422        9.3198396131       32.1268694214
  H         4.4247726391        8.2174218689       31.4846324578
  C         6.3908127490        7.6055496589       31.2304081465
  H        -7.2209445704       11.5207390023       24.7864554473
  H        -7.7575383599       11.4820482248       26.5240865764
  C        -8.7408005984       10.1821557859       25.0437634740
  H        -2.5413069892       17.1816137155       35.4571005996
  C        -3.2317739327       15.7831012892       36.7770322652
  H         5.0008591073        7.1201347694       11.0516493328
  H         4.7197591155        5.7325728641       12.0232498258
  C         2.9466083160        6.4598848830       10.9691153672
  H         7.0776904709        8.0041380718       32.0005017398
  H         6.8493971342        7.5656829224       30.2241239296
  C         5.9683157765        6.2618094771       31.7544984694
  H        -8.9840689970       10.7163964541       24.1420779029
  H        -8.5444435133        9.2019857518       24.6028955989
  C        -9.8224136194       10.1570497503       26.0790361387
  S        -3.6791228692       14.2580767360       37.3236774711
  C        -3.2346107482       16.9129246738       37.8452523340
  H         2.6248534376        5.4730853374       11.0121019208
  H         2.2052421236        7.0722130523       11.5042626804
  H         2.8297376115        6.8051598750        9.8979675245
  H         6.8028225717        5.5743442440       31.5896070461
  H         5.1420748330        5.8711472736       31.1443422316
  H         5.6723726059        6.3812993137       32.8032006234
  H        -9.3943239581        9.6764752970       26.9821983823
  H       -10.6907319396        9.6116214603       25.7636283400
  H       -10.0404800116       11.1999789822       26.3213692781
  C        -3.9798952823       15.0416274514       38.9000526852
  N        -3.7302319608       16.4054358266       38.9796045248
  O        -3.1336358673       18.1005594486       37.6166553334
  S        -4.8719357658       14.2979256866       40.2398691689
  C        -3.8945555800       17.2921292098       40.1191063002
  H        -4.2188185142       18.3087651784       39.8625437417
  H        -4.5927952767       16.9003541081       40.8901220452
  C        -2.6253036537       17.3574599707       40.9302035323
  H        -2.7164441397       18.1324806501       41.7271489383
  H        -2.5644846306       16.4608409619       41.5727601769
  H        -1.6788368594       17.5315315164       40.3257449774
