352
i=
  H         3.3431051231        1.0308652601       13.7769948316
  C         3.9344166448        1.7758193676       13.3128648558
  H         4.8728290873        1.3593314662       13.0126272045
  C         3.1625584398        2.2744217633       12.1497230101
  C         4.4002963814        2.7331834925       14.3863638768
  C         4.0474345731        2.6573718738       11.0520748199
  H         2.5971569947        3.1941461616       12.3910655642
  H         2.3989412586        1.5416672140       11.7268801871
  H         3.6323845905        3.0885011231       15.0996568851
  H         4.6953399168        3.6449702483       13.8841459971
  H         5.1067994172        2.3136372979       15.0723066633
  C         4.6176387889        1.5107700756       10.3104866923
  H         3.6837407371        3.3651646356       10.4134268296
  H         4.9459377586        3.0660993848       11.4570038262
  C         5.0682135733        1.8107938031        8.8686614809
  H         3.7823676257        0.8854420406       10.1876969846
  H         5.4266394411        1.0329228257       10.8481961915
  C         6.4556681236        2.5398161466        8.8099043502
  H         4.2969716777        2.3566237947        8.3242857114
  H         5.1932519656        0.8523916180        8.4078893084
  C         7.7071679449        1.6678056154        9.2030846209
  H         6.6119312636        2.9577494971        7.8744975219
  H         6.2906836735        3.3806632489        9.4458882945
  C         9.0269706814        2.5130172762        9.4736116040
  H         7.8292298553        0.9491528361        8.3511752688
  H         7.5821343635        1.0362584305       10.1354014712
  C         8.6794866273        3.8427044336       10.2112814932
  C         9.5538307953        3.2312916264        8.2779829459
  C        10.2089909246        1.7880858703       10.1092839121
  C         9.1316033166        4.9776389648        9.5079875277
  C         7.9239419085        4.1648543584       11.4011546666
  C         9.6116028661        4.5896083040        8.2241601969
  C        10.0849838819        2.5330180509        7.1761027950
  H         9.8884618335        0.8845482080       10.4340736808
  H        10.9979078559        1.5162454333        9.3840567215
  C        10.9660589318        2.5987739888       11.1674947950
  S         8.5805225688        6.3975328958       10.3478478181
  C         7.7702694704        5.5057215605       11.6262748703
  H         7.5612520452        3.2852231352       11.9468904773
  C        10.0152476156        5.2098400742        7.0784475582
  H         9.9590473885        1.5068493209        7.0763569713
  C        10.5472676783        3.1591424519        6.0686821637
  H        10.4228027661        2.9361117750       12.0399659406
  H        11.3375149031        3.5193273928       10.6110644389
  C        12.2367000319        1.8790256960       11.6633792877
  C         7.3009842590        6.2684031482       12.8011656321
  C        10.4397112966        4.5025086365        5.9232115282
  H        10.1127823588        6.2537742698        7.1418568213
  C        10.8861364160        2.7959146308        4.8104912460
  H        12.9833881481        1.9114189429       10.8676560305
  H        11.9280827138        0.8878924333       12.0145875423
  C        12.8520047947        2.6347354371       12.7962163293
  C         7.3151662986        7.6288477468       12.9878240463
  C         6.8508736832        5.5259985104       13.9857975417
  C        10.7612215268        5.2256376306        4.6654100225
  C        11.0304232596        3.8936316925        3.9752447977
  S        10.9501440098        1.2857343601        3.9128892231
  H        13.3374087001        3.5543388889       12.4374706461
  H        12.1361608927        3.1709730028       13.4139749383
  C        13.6047205104        1.7768768074       13.7742595706
  N         7.7631186174        8.5175773085       12.0424087479
  C         7.0747154681        8.2664192934       14.2353876113
  C         6.5700586095        6.1377513868       15.2444548126
  H         6.8614497905        4.4093612403       13.9482223912
  C        11.9877502191        6.1605968351        4.7041996632
  C         9.5208678736        5.9981078410        4.0667093414
  C        11.3613733114        3.4858010713        2.6100080597
  C        11.3060861492        2.1106655822        2.4308575018
  H        14.3620667371        2.4641410491       14.2560775093
  H        14.2251326736        1.0538729736       13.1233503888
  C        12.7893532959        1.0526679584       14.7697816041
  S         7.6855123931        9.9376321037       12.7134819367
  N         7.1408681136        9.6590340653       14.1902078019
  C         6.6792089678        7.6123261933       15.4255975769
  H         6.2650032451        5.5344895430       16.1006113950
  H        11.8180175199        6.9665191769        5.4402604993
  H        12.0816853805        6.6964136109        3.7183240012
  C        13.3051508669        5.4442795841        5.0035107309
  H         9.2476954782        6.7881557410        4.7535107360
  H         9.7609540287        6.4679552164        3.1067398461
  C         8.3039877768        5.1500744506        3.6360191586
  H        11.4997095635        4.2177447132        1.9058749124
  C        11.6626970537        1.4804770461        1.1458464412
  H        11.8111194016        0.6950063803       14.5074465839
  H        13.3973614110        0.1959338973       15.1038278621
  C        12.4586068162        2.0012573286       15.9428114530
  C         6.6206129781        8.3297835857       16.6717778331
  H        13.1656510679        4.7260759864        5.7735016441
  H        13.6763717572        4.8391252615        4.1268213229
  C        14.4339476539        6.2937063077        5.5373129074
  H         7.7557771140        4.8195512053        4.5149440059
  H         8.6179171049        4.2783907160        3.1970028296
  C         7.4440239881        5.8423753048        2.6036991204
  C        11.7967356329        0.0566760917        0.9339316385
  C        12.1056874379        2.3142462564        0.0036401280
  H        11.7776231096        2.7674421101       15.5847250860
  H        13.2277456681        2.5916457195       16.3468203474
  C        11.7632884268        1.2181662191       17.0497838544
  H         6.8472201615        9.4184513170       16.5655471008
  C         6.3600475169        8.0278748533       18.0317515840
  H        14.0901774763        6.9486885611        6.3727853364
  H        14.7155835620        7.0074093779        4.6889322358
  C        15.5791510554        5.4164156927        6.0284691380
  H         7.9592257102        6.7214567335        2.1205360335
  H         7.1303314585        5.2156217964        1.8155037099
  C         6.1918299441        6.5430309899        3.1132538201
  N        11.4946226007       -0.8899148917        1.9641775942
  C        12.2692014076       -0.5514397022       -0.1967863606
  C        12.4576250135        1.6678370937       -1.1926200091
  H        12.1457342961        3.3504221057       -0.0013425344
  H        11.5893640154        1.9482811154       17.9733579434
  H        12.2430308304        0.3613736295       17.3164466718
  H        10.7445249689        1.0583558267       16.9074995178
  S         6.0233518052        6.5154926084       18.7362082518
  C         6.5107810988        9.0630952704       19.0265303799
  H        15.1433818740        4.8731830278        6.8725557287
  H        15.8049770908        4.7949701085        5.2254809226
  C        16.7524626223        6.2346463615        6.5320167074
  H         6.5662536430        7.2151091528        3.9624477832
  H         5.6505392341        5.7761514675        3.6136549091
  C         5.2471853677        7.2364513518        2.1482842565
  S        11.8128209717       -2.3292776824        1.4430922314
  N        12.2994005703       -1.9274826084       -0.0838717548
  C        12.5984643663        0.1794955066       -1.3654774151
  H        12.7151685839        2.2178905298       -2.0462911442
  C         5.9179473789        7.3072680807       20.2530659599
  N         5.9818719617        8.6879688873       20.1466902243
  O         6.9591353922       10.1807390512       18.8415287093
  H        17.2122507264        6.6288868562        5.6175032176
  H        16.4387174271        7.0870139571        7.1259988292
  C        17.6532004029        5.2893050766        7.2747915117
  H         5.7942375871        7.6864843052        1.3164161544
  H         4.7334626797        6.4693878171        1.6092115428
  C         4.1495044304        8.1459781976        2.7135829077
  C        12.9290822990       -0.4973005518       -2.5954738319
  S         5.6786969942        6.5454879258       21.7952577896
  C         5.9445432818        9.6322041425       21.2649832736
  H        17.2134930194        5.1392204621        8.2970296246
  H        17.7354495352        4.3108925961        6.7332357896
  C        18.9782692379        5.8887965698        7.3073043340
  H         4.3074227102        8.1842230170        3.7984216852
  H         3.1658911659        7.7228221198        2.6485389996
  C         4.2330128270        9.5310580624        2.2203320665
  H        12.7052989597       -1.5396559987       -2.5442922775
  C        13.5064420507       -0.1565986443       -3.7877865484
  H         5.3397657810        9.1369407400       22.0289021406
  H         5.4960220699       10.5894956351       21.0751889718
  C         7.4016490320        9.8549786717       21.8237581546
  H        19.4181686070        5.5610255963        8.2358013047
  H        19.0412946368        6.9902381384        7.2997337398
  C        19.8345192051        5.4424657044        6.1431657252
  H         3.5464258245       10.1787916795        2.8064362058
  H         5.2173629908        9.8247395731        2.2839574114
  C         3.7973871025        9.6293562504        0.7333979519
  S        13.9907693961        1.4126802616       -4.2428622472
  C        13.6086287397       -1.2644750593       -4.8437510741
  H         7.6001306428        9.1603799558       22.6436947409
  H         7.5040342774       10.8686899147       22.2623108526
  H         8.1227441564        9.7898609986       21.0388883277
  H        20.0115058066        4.3458485400        6.2086590918
  H        19.3122981531        5.6638158086        5.2181449640
  H        20.6927164768        5.9397450273        6.1563345790
  H         3.8893653128       10.6797062908        0.3435170988
  H         4.4055026809        9.0411669801        0.0946815747
  H         2.8133187408        9.2412707193        0.5854383959
  C        14.1778201959        0.6822555546       -5.8408992833
  N        14.1226577773       -0.6996263116       -5.9338667109
  O        13.0904323505       -2.3737022946       -4.7926778273
  S        14.6635257525        1.5774904167       -7.2935777933
  C        14.1093593993       -1.4692883915       -7.1199162845
  H        14.2597807131       -2.5477161972       -6.8522436793
  H        14.8453818052       -1.1741441921       -7.7818789342
  C        12.7225987857       -1.2720477363       -7.8594704106
  H        11.8240996238       -1.5635257363       -7.3363382930
  H        12.7177516517       -1.9024333587       -8.7548811014
  H        12.7984660214       -0.2343224415       -8.1612162753
  H        -3.9836195554       13.9829576379       16.6484710950
  C        -3.4121318064       13.1490666204       16.4072587398
  H        -4.0327304430       12.2904503547       16.5528047370
  C        -2.2491489844       13.0854266983       17.4586453577
  C        -2.9479948454       13.1812133796       14.9935667101
  C        -2.7636943880       13.5952180444       18.7969123501
  H        -1.7582751856       12.1566881899       17.6138269168
  H        -1.5702600979       13.8384566835       17.0266691210
  H        -2.6872255080       14.2080348613       14.7332845963
  H        -2.0232613699       12.7014718138       14.8367723511
  H        -3.7036500182       12.7036352942       14.2724659115
  C        -1.7852073455       13.3244244604       19.9219416528
  H        -3.6470969568       13.0492909967       19.0444281939
  H        -2.9852573771       14.6132861913       18.6969971061
  C        -2.3282859169       13.6188071087       21.3844926406
  H        -1.4223109234       12.2837138456       19.9667393195
  H        -0.8535868938       13.8905348816       19.7610846671
  C        -1.3583176498       12.9308961481       22.4052649979
  H        -3.2874726346       13.2020232031       21.4438890175
  H        -2.5060465292       14.6916731201       21.5394075653
  C        -0.0959185868       13.8084396516       22.7985509848
  H        -1.9608548328       12.6256963946       23.3129407062
  H        -0.9114348709       12.0200094193       22.0337026994
  C         1.0023610395       13.0390314378       23.6171809403
  H         0.4071281464       14.2589378425       21.9250008264
  H        -0.4488745894       14.6664650132       23.3885170854
  C         1.3956655357       11.7062600400       22.9927536892
  C         0.5267882058       12.4227997661       24.9675053946
  C         2.1529447490       13.9995471389       23.7963745954
  C         1.2540091541       10.6448146653       23.8683049054
  C         1.8940944463       11.3033711786       21.7244383257
  C         0.6236538162       11.0599962433       25.0415906684
  C         0.1154599644       12.9757583870       26.1477482890
  H         2.1878907015       14.5590114557       22.8817855166
  H         1.9513102356       14.7187807085       24.5971189456
  C         3.4122359373       13.2482968723       24.1539584895
  S         1.7591821876        9.1139307973       23.1619318815
  C         2.0807683276        9.9638534880       21.7182180867
  H         1.9705487224       12.0451813397       20.9755212340
  C         0.2168381693       10.3795235340       26.1761779550
  H         0.1014168205       14.0643430969       26.1910559994
  C        -0.2067401101       12.3236614806       27.2942022191
  H         3.6858474437       12.5465836633       23.2985089951
  H         3.0248360588       12.7486658852       24.9768559993
  C         4.6696081874       14.0305828612       24.5969343905
  C         2.5499410773        9.2912720219       20.4450231380
  C        -0.1393498108       11.0161491999       27.3827986617
  H         0.3995074414        9.3793335874       26.2552617618
  C        -0.6564135376       12.6826581009       28.5243553957
  H         5.4560283752       13.3483174709       25.0182198526
  H         4.4530624266       14.7886694089       25.3810276973
  C         5.2694138839       14.7292205533       23.3665362168
  C         2.5761811468        7.8792210385       20.2652714104
  C         2.9653478215       10.1336062874       19.3161676675
  C        -0.4369414921       10.2792049509       28.7014072706
  C        -0.7306163049       11.6028173852       29.3645933236
  S        -1.0146651503       14.1874489684       29.3603902530
  H         6.0599361855       15.4782587148       23.5836913157
  H         4.5207580754       15.2863237740       22.7791092000
  C         6.0037685065       13.6647813797       22.4679757366
  N         2.2446988046        6.8527891888       21.1991390161
  C         2.7165298487        7.2865331520       19.0153320546
  C         3.3033426447        9.5368430756       18.1027467974
  H         3.3304907801       11.0927376642       19.4468375606
  C         0.8727493568        9.5689174606       29.2453999482
  C        -1.6824904305        9.3894327383       28.5797624507
  C        -1.0031483211       12.0082166938       30.6469296565
  C        -1.2709469518       13.3307179988       30.8253054723
  H         7.1256140862       13.8063896515       22.6874489421
  H         5.9356503128       12.5520684168       22.6578765271
  C         5.8228519572       13.9940192677       20.9218002177
  S         2.2768147357        5.3709967792       20.5008773057
  N         2.4422185973        5.9574505231       18.9973011453
  C         3.0693885568        8.0753141338       17.8601055224
  H         3.4879440130       10.2708315288       17.2811136886
  H         1.2307477035        8.8393366238       28.5240263243
  H         0.6326552439        8.9361300087       30.0361947084
  C         2.0844148640       10.3436286924       29.5982453841
  H        -1.4083399517        8.3945869124       28.2126341372
  H        -2.0650253276        9.2795601489       29.5796317299
  C        -2.7900663066       10.0143871151       27.6953310318
  H        -0.9340591088       11.2559659856       31.3697115216
  C        -1.6454877070       14.0291283989       32.0880281108
  H         5.6704066156       15.0660886406       20.8544482095
  H         4.8554214374       13.5976317870       20.5042119042
  C         7.0117222892       13.5204922140       20.0545784085
  C         3.1215382581        7.4338198426       16.5618467442
  H         2.5273901241       10.8535970604       28.6951766985
  H         1.9173203140       11.0084355301       30.3944533506
  C         3.2849482895        9.4948442393       30.1143988030
  H        -2.4452062929       10.2338947057       26.6798914544
  H        -3.1381741215       10.9122421516       28.1310819621
  C        -4.0663475283        9.2519257443       27.4989817208
  C        -1.7198474804       15.4534527612       32.2700190261
  C        -1.8431533488       13.2653411581       33.3213119753
  H         7.9836843929       13.9246860557       20.3033203321
  H         6.9967143635       12.3578132083       20.1933806736
  C         6.7964211926       13.8158228846       18.5630866684
  H         2.7955662911        6.4459499634       16.5672339851
  C         3.3763600753        7.9685236748       15.3309294004
  H         3.9302771482        9.1249696675       29.2777568578
  H         2.7553782051        8.6951653596       30.6064696415
  C         4.1055920292       10.1366575859       31.2149818550
  H        -3.9421095086        8.3220946704       26.9437479062
  H        -4.4844952135        8.9806569779       28.4137230565
  C        -5.2129874066       10.1957046899       26.9759603386
  N        -1.4311343979       16.4347559282       31.2397546382
  C        -2.0680575868       16.0482318018       33.4511512336
  C        -2.1541166041       13.8519588691       34.5501690343
  H        -1.7581850634       12.1810135369       33.3799038514
  H         6.9975225834       14.8521124455       18.3401688723
  H         7.5103577095       13.1993979181       17.9820625901
  H         5.7096728543       13.5216979788       18.2710253589
  S         3.7495778495        9.5594781852       14.7588738127
  C         3.3183122742        6.9650158636       14.2424706130
  H         4.1869970903       11.2302318331       31.1726214620
  H         3.5412356344        9.9021175265       32.1301443554
  C         5.5005780681        9.5178191573       31.3386039972
  H        -4.9173507165       10.9214016238       26.2161813724
  H        -5.6057726819       10.8403353413       27.7050837171
  C        -6.3576339939        9.4202186871       26.2466642560
  S        -1.6380377356       17.9329551847       31.8598039819
  N        -2.0446901412       17.4423150014       33.3964615666
  C        -2.3347311264       15.3124271071       34.6419007880
  H        -2.2502408129       13.2534315171       35.4312101210
  C         3.9077625116        8.8983261624       13.2026767053
  N         3.6776613798        7.5864564908       13.1392035661
  O         3.0321122944        5.7777434508       14.3476885548
  H         5.9661764603       10.1263062917       32.1403376294
  H         6.0349081483        9.5942285651       30.3971880644
  C         5.4257845760        8.0651468635       31.7212990078
  H        -6.0636082100        8.9443841629       25.3318868477
  H        -6.8112337079        8.6583779227       26.8535874725
  C        -7.4122443849       10.5583274213       25.8359820325
  C        -2.5993138776       16.0500968873       35.7966498395
  S         4.3197844188        9.6159239880       11.6760062975
  C         3.8118432848        6.7071153160       11.9559472953
  H         6.2185349752        7.8858875449       32.4567603432
  H         4.4579425315        7.8270003028       32.1420650348
  C         5.7542789556        7.1238370509       30.5368376714
  H        -6.9304989062       11.1234266617       25.0437205027
  H        -7.6674620683       11.1890377548       26.6813254349
  C        -8.6778885673        9.9424194062       25.2057942001
  H        -2.2486210418       17.1077861378       35.7359452874
  C        -3.0582733396       15.7107913340       37.0767405021
  H         4.5915067827        7.0755216070       11.2889561833
  H         4.1600579051        5.6580746330       12.1000631287
  C         2.4506734084        6.5462332178       11.2472793818
  H         5.9454224614        7.5805568580       29.5599839241
  H         4.8922903634        6.4311384632       30.3280404575
  C         6.9475494683        6.3014906215       30.9691071858
  H        -9.0758624212       10.6483641385       24.4732783325
  H        -8.4787977107        8.9280486738       24.7963306376
  C        -9.7826024458        9.6997599284       26.2819683263
  S        -3.3933248497       14.0723273833       37.4941995360
  C        -3.1991265005       16.6848749404       38.0935499130
  H         1.5782432688        6.8991360781       11.8158613308
  H         2.3636756173        7.1456922879       10.3327570605
  H         2.1977523796        5.5175621477       10.9535953758
  H         6.7454009901        5.7366224711       31.9080116941
  H         7.9195369612        6.8809960830       31.0240649928
  H         7.1479202240        5.4094738704       30.3064276533
  H       -10.0811046967       10.6885244179       26.6092473658
  H        -9.3673533240        9.1900922859       27.1523156145
  H       -10.6540034901        9.1319479473       25.8108200598
  C        -3.7614182281       14.7094879652       39.0851484976
  N        -3.7178484409       16.0894658291       39.1773768221
  O        -2.9980524320       17.8795777164       37.9111664852
  S        -4.3135493114       13.8270184039       40.4360193323
  C        -3.8214852958       16.8407460061       40.4108131791
  H        -3.9064740627       17.8896363676       40.1566229808
  H        -4.5992767131       16.5067175241       41.0910275187
  C        -2.5071636485       16.7606207313       41.1333140805
  H        -1.8519551288       17.5133567321       40.7342053570
  H        -2.6748504246       17.1100291334       42.1836049296
  H        -1.9703427909       15.8710987367       41.0504609880
