352
i=
  H         4.6097598275        1.8701848795       12.6357980407
  C         3.8452190338        2.5946323004       12.9762771282
  H         4.3872150553        3.4801431440       13.2428882178
  C         2.8591839083        2.8245105990       11.7693007116
  C         3.1672302769        2.0761717088       14.2741999764
  C         3.7958851082        3.1145989800       10.5583420824
  H         2.3123393954        3.7045941769       12.0280508588
  H         2.1585729700        2.0462959889       11.5539120583
  H         2.3760955642        1.2829101749       14.1229970425
  H         2.5864043691        2.9013433829       14.7804917939
  H         3.8652686186        1.6141639221       14.9116560274
  C         4.3701391482        1.8357345563        9.8871290609
  H         3.2183442321        3.6055878316        9.7780086457
  H         4.6229675571        3.8013270929       10.7679415246
  C         5.2317274311        2.0694946723        8.5891932742
  H         3.5350694469        1.0877181195        9.7254111255
  H         5.0910598652        1.3224984522       10.5356370259
  C         6.4183222071        2.9433800524        8.8753791488
  H         4.5052497777        2.5802910343        7.9671763395
  H         5.5136732234        1.1945168237        8.0454248891
  C         7.7827953029        2.1917319682        9.0905910355
  H         6.4970820873        3.5523462913        7.9659235765
  H         6.1261632676        3.7401945239        9.5585556106
  C         9.0241077701        3.0789084671        9.2507567368
  H         7.8330894505        1.5580250140        8.1837013691
  H         7.8465170226        1.4126204014        9.8630736357
  C         8.6637549344        4.4682690982        9.9343841523
  C         9.4350354613        3.8661180223        8.0710260221
  C        10.0895763747        2.2918460163        9.9482302329
  C         8.8335856223        5.6045103507        9.1547675971
  C         8.0676510393        4.7907831411       11.1882584749
  C         9.4316750634        5.2375345314        7.9767879641
  C         9.9337999151        3.2700990248        6.9072122145
  H         9.6613553966        1.8953188116       10.8212610663
  H        10.4287569809        1.4706740714        9.3170074899
  C        11.2089816599        3.1136834452       10.3884219334
  S         8.3362052849        7.0786195412        9.8907582393
  C         7.8585202223        6.1356024637       11.3719509832
  H         7.9660479405        3.8833783490       11.8468186817
  C         9.6808219387        5.8610598121        6.7515973338
  H         9.8835924099        2.2305957732        6.7612380463
  C        10.1783109750        3.9106461137        5.7018786757
  H        10.9962635906        4.0993045576       10.8120522552
  H        11.7924316412        3.3926125176        9.4741515540
  C        12.2121161908        2.4691027361       11.2903048873
  C         7.4665774029        6.7832626542       12.6522965756
  C        10.0849393778        5.2531088258        5.5309498338
  H         9.7300205809        6.9522048421        6.7090829308
  C        10.6727901348        3.5211906538        4.4247657625
  H        13.0840055967        3.2283473038       11.4181015027
  H        12.5517996803        1.5351525279       10.8031195959
  C        11.7016355503        2.3433999412       12.7048744810
  C         7.6125578817        8.2044607798       12.9424106975
  C         7.0445936146        5.8875203644       13.7966930269
  C        10.5171613703        5.9089279628        4.2462155008
  C        10.8684213377        4.6078849135        3.5932900379
  S        11.0374934701        1.9738609877        3.7774177500
  H        11.2313449216        3.3087729418       13.0225695010
  H        10.8775139252        1.6513397763       12.6923861102
  C        12.7522098446        2.0637414885       13.8330528010
  N         8.1642783498        9.1701184733       12.1287462014
  C         7.2946742266        8.7358162706       14.1900184585
  C         6.8261536152        6.4541566416       15.0571896160
  H         6.6816768045        4.8769977614       13.6140143842
  C        11.8677352267        6.7471810733        4.4945503081
  C         9.4821003579        6.7388651242        3.5946605554
  C        11.3315951123        4.1343720215        2.3305878366
  C        11.3426750336        2.7582570325        2.2456733305
  H        13.6349621805        2.7213814057       13.8864514277
  H        13.2510322300        1.0333129349       13.6843976683
  C        12.1266987723        2.1583386289       15.2493362461
  S         7.9785303088       10.6351910483       12.8447249596
  N         7.2597366638       10.1139379072       14.2028086949
  C         6.8456941812        7.9195608523       15.2713874951
  H         6.4720885894        5.8299185232       15.8160923115
  H        11.7816791548        7.4772540664        5.3024999318
  H        11.9778141008        7.3059329681        3.5334316742
  C        13.0561934539        5.9330134144        4.8540501717
  H         9.1931340163        7.5629416259        4.2704303683
  H         9.9814612449        7.1623598432        2.7236780660
  C         8.2374472839        5.9990207089        3.2508284828
  H        11.5489151098        4.8973559261        1.6501070122
  C        11.5844382687        1.9932267275        1.0095102540
  H        11.6339564947        3.1466373397       15.3721220560
  H        11.2403632222        1.5689508485       15.3148439260
  C        12.9625245723        1.8348160294       16.5002713378
  C         6.3595277726        8.6278137364       16.4333311424
  H        12.8780732899        5.2554217620        5.7208956687
  H        13.2797875153        5.2997089428        4.0266330529
  C        14.2592930486        6.8435924474        5.1803898355
  H         7.7753995819        5.4649719635        4.0413987783
  H         8.5517214915        5.2257080170        2.6230774062
  C         7.3732780023        6.9774626572        2.4363819168
  C        11.7045077320        0.5928579041        0.8976700272
  C        11.6350207089        2.6846452275       -0.2980062925
  H        13.8822312239        1.5546058181       15.9660624788
  H        12.6488242721        0.9020584373       17.0103124619
  C        13.0155441174        3.0155422469       17.4086914761
  H         6.4493217232        9.7443104782       16.4309211093
  C         6.1170611899        8.2585204103       17.7376259736
  H        14.0607728747        7.3968146840        6.0615337804
  H        14.3444246750        7.5483780969        4.3203970342
  C        15.5856243875        6.1889872046        5.3194795206
  H         7.2613711093        7.8542589826        3.0033932050
  H         7.8945377508        7.3175021521        1.5556232342
  C         6.0182343167        6.3365409849        2.1289949690
  N        11.4736850697       -0.2670948832        1.9876569516
  C        12.0692398778       -0.0251492081       -0.2037284914
  C        12.0824450865        2.0359655218       -1.4153460631
  H        11.5669358233        3.7489737516       -0.2421188664
  H        13.7979416606        3.6926337706       16.8476236369
  H        13.3891388014        2.5763250279       18.3969901875
  H        12.1053392363        3.5212781290       17.6199044911
  S         6.0479002414        6.6054817127       18.3707708609
  C         5.8470196204        9.2320539360       18.7414189155
  H        15.5652753989        5.2455477948        4.8143108343
  H        16.3487547505        6.8160527346        4.8697870408
  C        15.9291242634        5.9266231071        6.7410461228
  H         5.4851595074        6.0300804604        3.0874645657
  H         6.0715245282        5.3298861548        1.5863052915
  C         5.1434134777        7.3652251942        1.3532476099
  S        11.5544088426       -1.8476473714        1.3791835651
  N        12.0191916381       -1.4245587020       -0.1032005929
  C        12.3888694334        0.6134848201       -1.4450168630
  H        12.1251809411        2.6236478208       -2.3625880408
  C         5.6774429733        7.3118609902       19.9513310452
  N         5.5176388952        8.6600156661       19.9033784738
  O         5.7612954608       10.3939517450       18.5151316952
  H        15.8299097036        6.7416360963        7.4140518740
  H        15.0755489575        5.3347572807        7.0262787993
  C        17.2555970751        5.2566831251        6.9543366102
  H         5.8653465818        7.8509246152        0.6513384056
  H         4.3765435216        6.8396572192        0.8378507293
  C         4.5447832443        8.3440631055        2.3407540034
  C        12.6264289795       -0.1896289949       -2.5984367604
  S         5.6965113369        6.4807406516       21.5176685068
  C         5.4758563890        9.5461442409       21.1224438594
  H        17.4912821962        4.6072772252        7.7547755922
  H        17.3206004126        4.5481473467        6.1463694260
  C        18.5134718763        6.2249500358        6.7287934160
  H         5.4640653633        8.7217417697        2.8638734877
  H         3.9249605247        7.7440308304        3.0106001493
  C         3.6707772779        9.3870582282        1.6954998579
  H        12.3818355942       -1.2289033410       -2.5423521106
  C        13.0841217201        0.1128929760       -3.8232303226
  H         4.7861637281        9.0840696730       21.8424120141
  H         5.0446380178       10.5870267572       20.8967345422
  C         6.9332781035        9.7416632461       21.6337699200
  H        18.4683415953        6.8423590596        7.5868815069
  H        18.2558784003        6.8027359271        5.8662585465
  C        19.9406714994        5.5460412441        6.5037812234
  H         2.7970849082        8.9121983449        1.1164244308
  H         3.1441228613        9.8815821236        2.4671063538
  C         4.5017972267       10.4896402460        0.9329283442
  S        13.7247541845        1.6550523689       -4.3211926088
  C        13.0896206860       -0.9483378791       -4.9161547922
  H         7.6566152715        9.0596679588       21.2779699875
  H         6.9994277998        9.8013618352       22.7199450088
  H         7.2301523595       10.7291206523       21.3314921342
  H        20.7714556671        6.2077131326        6.8591666484
  H        19.9901448532        4.7559928224        7.2517382200
  H        20.0850496118        5.1653826468        5.4423946983
  H         5.2746419738       10.9387294694        1.6194160488
  H         4.9324382359        9.9799156537        0.0193700641
  H         3.9255684458       11.3230385378        0.5399144429
  C        14.0294379319        0.8490576062       -5.8821423319
  N        13.7726859209       -0.4343475999       -5.9867227962
  O        12.7002656140       -2.0740399385       -4.7891267043
  S        14.9092047827        1.7186737409       -7.1959915572
  C        14.1129821761       -1.3021966757       -7.1136092657
  H        14.2295617006       -2.3497943699       -6.7055592564
  H        14.9620970748       -0.9894727127       -7.7096137472
  C        13.1222898181       -1.1726375071       -8.2457381938
  H        12.2543534595       -0.5709620942       -7.9264176749
  H        12.7674358561       -2.2552037791       -8.3921701918
  H        13.5075629571       -0.8007538067       -9.1781075580
  H        -3.8228070324       14.5015818913       16.4319456625
  C        -3.2029836239       13.6442058235       16.1420335021
  H        -3.8975835918       12.8199266173       16.0942001413
  C        -2.2479723374       13.2109889198       17.3202826664
  C        -2.5419376927       13.6234735722       14.7574343012
  C        -2.7468229204       13.7699568359       18.5888618753
  H        -2.4068336411       12.1376177744       17.5307646262
  H        -1.1486418801       13.4153284003       17.1131893509
  H        -3.0459269113       14.3026185181       14.0954588095
  H        -1.5425842639       13.9768062371       14.8301493133
  H        -2.7136707171       12.5558777616       14.4077182134
  C        -1.7405625991       13.7395995490       19.7362705465
  H        -3.6389493449       13.1720041627       18.8029370032
  H        -3.1519036852       14.8188627772       18.6132440825
  C        -2.4550724739       13.3882576001       21.0350764177
  H        -0.9848334649       13.0241348845       19.4787986631
  H        -1.1898649802       14.6404194474       19.8581449921
  C        -1.3692443844       12.8188702614       22.0650221019
  H        -3.1362488641       12.5092940312       20.8517421199
  H        -3.0494484961       14.1336425614       21.3667188969
  C        -0.1940488921       13.7696569013       22.5394844902
  H        -1.9030741745       12.4190464789       22.9175837478
  H        -0.8324425437       11.9372165222       21.6225825285
  C         0.9240455882       13.0471074684       23.3857671797
  H         0.2840801527       14.3347947748       21.7606473227
  H        -0.6130751607       14.4490434889       23.1888080790
  C         1.2429168798       11.6756323277       22.7647966767
  C         0.3677367548       12.3081573808       24.6356454215
  C         2.2156568079       13.9191209783       23.5780033141
  C         0.8344500170       10.5929044394       23.4697346300
  C         1.8483600387       11.2932071710       21.5650755373
  C         0.3164564473       10.9917453842       24.7093131412
  C        -0.0366621979       12.9513627770       25.8135095111
  H         2.4469172541       14.6230038930       22.7964281069
  H         1.8451333877       14.5323326804       24.4384336648
  C         3.5031834624       13.2733986709       23.9704185249
  S         1.0099891062        9.0355641232       22.6166925326
  C         1.6952221849        9.9605775202       21.3258683513
  H         2.3253195054       12.0295190509       20.9220152065
  C        -0.1503735521       10.3157119241       25.8245390607
  H         0.1490271805       13.9952412620       25.9149965766
  C        -0.3834797208       12.3002798923       26.9937947779
  H         3.6856912173       12.3868011696       23.4207940463
  H         3.2261269417       12.7974343115       24.9218446169
  C         4.7642980895       14.0287414624       24.0913135505
  C         2.1509406653        9.2603434219       20.0604602656
  C        -0.5753568762       10.9639008208       26.9916172332
  H        -0.2732404585        9.1650007974       25.7810545783
  C        -0.7580822967       12.7065564616       28.2478126914
  H         5.4142760328       13.3455617035       24.5633583529
  H         4.6101737572       14.8874523014       24.8739568035
  C         5.4538800751       14.5267133101       22.7755270310
  C         2.2824990838        7.8983622793       19.7713144166
  C         2.4081124459       10.1475736016       18.9105531060
  C        -1.0001804565       10.3332691988       28.2640540902
  C        -1.1198260164       11.6360660150       28.9789935906
  S        -1.0340966444       14.2157325356       28.9795409150
  H         6.1364002699       15.3865736926       22.9896186777
  H         4.7127604673       14.9827920652       22.2209016422
  C         6.0450681672       13.4303168177       21.9486040914
  N         2.0723235308        6.8573936789       20.7391285792
  C         2.6107755853        7.4376878866       18.4775995655
  C         2.8594829400        9.7669168223       17.7094382070
  H         2.5524049741       11.1664375717       19.0750732886
  C         0.1431306377        9.5477775201       28.8239490714
  C        -2.3475055065        9.6012571950       28.1271653579
  C        -1.4647465852       12.0713518513       30.2626976552
  C        -1.4149189350       13.4527921037       30.4261072814
  H         7.0874242876       13.5037011035       22.3095206938
  H         5.6585708864       12.4856920233       22.3776682873
  C         5.7599850768       13.5925867295       20.4583204026
  S         2.2417212696        5.4357267638       19.9011125701
  N         2.6894656084        6.0104601211       18.4443002496
  C         2.9276278847        8.2820711362       17.4317567060
  H         3.2733552760       10.4437014918       16.9905809307
  H         0.4773355771        8.9544728967       28.0430449092
  H        -0.3196756336        8.8284041042       29.4907358215
  C         1.3820052327       10.2544359792       29.2851451255
  H        -2.2775117506        8.9512453775       27.2892327489
  H        -2.4886647639        8.9871472463       28.9683680238
  C        -3.5825518238       10.4401798472       27.7003009089
  H        -1.6463255980       11.4368108037       31.1435477788
  C        -1.7563833924       14.2926386506       31.6432205697
  H         5.3889603180       14.5068433367       20.1097168390
  H         5.0514648715       12.8289162305       20.2166260800
  C         7.0352422808       13.4237714586       19.5955972589
  C         3.2005009507        7.7529320365       16.0867553042
  H         1.9481917611       10.6955316101       28.4520223738
  H         1.0314980825       10.9581013207       29.9889560527
  C         2.3040169315        9.2986976963       30.0652459989
  H        -3.2724518394       11.1990247665       26.9893502381
  H        -4.0144363133       11.0355482505       28.5326794057
  C        -4.7233398470        9.6042098980       27.0569740455
  C        -1.7457958337       15.6887044852       31.8090400030
  C        -1.8341925615       13.5537059857       32.9068456847
  H         7.7986703081       14.1939881314       19.8332715429
  H         7.5363155742       12.4364924952       19.7510990422
  C         6.8376962164       13.3791282463       18.0785222700
  H         3.1712881971        6.6710891558       16.1753288051
  C         3.4562581418        8.1833433554       14.8634538896
  H         2.7420208229        8.5967554664       29.3398385973
  H         1.8118147656        8.6851692712       30.9348067151
  C         3.5132377573       10.0726392645       30.5957045096
  H        -4.2759060174        9.0721666859       26.2014582703
  H        -5.2562813997        8.8801096076       27.7069307019
  C        -5.8054555449       10.4902269373       26.5058688710
  N        -1.3951280627       16.6670803804       30.8284049922
  C        -2.0388468962       16.3312836214       32.9795442775
  C        -2.0680887623       14.2097487794       34.1297912147
  H        -1.7441537867       12.4922623179       32.8467501355
  H         7.1107039129       12.3758192249       17.7056850251
  H         5.7818036991       13.5874493551       17.6348935341
  H         7.4724742210       14.0995873808       17.5880454951
  S         3.8264510148        9.8367046956       14.4077291656
  C         3.6487124767        7.2207916890       13.7524415702
  H         3.6068110784       10.9846190988       29.9909776610
  H         3.2446823425       10.2215662272       31.6518949369
  C         4.8289388740        9.3027606443       30.4387110450
  H        -5.4146608561       11.3299246408       25.8969146574
  H        -6.3315510518       10.8758652980       27.3642242923
  C        -6.8025428120        9.7707596733       25.6288851509
  S        -1.6437858139       18.1172308868       31.4332992696
  N        -2.0984771151       17.7456952049       32.9414497374
  C        -2.3117564348       15.6335435635       34.1605711500
  H        -2.3433031669       13.5060925847       34.9152249732
  C         3.9713572956        9.2023199046       12.7350639214
  N         3.9701950033        7.8754943839       12.5862879506
  O         3.5332087538        6.0029932079       13.8468672805
  H         5.6924212124        9.8965489890       30.5769044409
  H         4.9284062955        8.8046977720       29.4589666920
  C         4.7263244536        8.1553416362       31.4812785770
  H        -6.3153522721        9.4359074242       24.7044111780
  H        -7.0048160120        8.7981989649       26.1688452178
  C        -8.0243084008       10.6277746610       25.3453856386
  C        -2.7847891976       16.3591735365       35.2224609384
  S         4.5972050869       10.1838770049       11.4330394056
  C         4.2542076482        7.2134875424       11.3021345538
  H         4.5538356892        8.5076935681       32.5339933157
  H         3.8940578468        7.5182769173       31.2584829306
  C         5.9831510081        7.3518331402       31.5210982344
  H        -7.7355156525       11.2233181484       24.5020881706
  H        -8.2424898489       11.2500104333       26.2111971640
  C        -9.2034197150        9.7786545119       25.0238481267
  H        -2.9783151761       17.4477551737       35.0645374261
  C        -3.2525080965       15.9347936768       36.4092222338
  H         5.2892610528        7.5593955764       11.0126455042
  H         4.3759803621        6.1603183490       11.4100816110
  C         3.1316190909        7.4044696473       10.3408290660
  H         5.9325933015        6.6347424232       32.3178500331
  H         6.8809597929        7.8516761643       31.7915178674
  C         6.3252988963        6.4885881296       30.2974941890
  H        -9.8467358197       10.2971535141       24.3323203706
  H        -8.8463593169        8.8556876657       24.5558889516
  C        -9.9643992951        9.4408543588       26.3728984650
  S        -3.8597332741       14.3735949192       36.8283979857
  C        -3.4118232567       17.0550361863       37.3650846509
  H         2.8941195303        6.4427529113        9.9585005862
  H         2.2855124895        7.9608713487       10.7358430767
  H         3.3886321021        7.8237503747        9.4319251463
  H         6.8556700679        5.5864513739       30.7250880881
  H         6.9469682862        7.0804354705       29.5208931347
  H         5.3601749111        6.2261677160       29.8934287637
  H        -9.4262389433        8.7684924112       27.0225856324
  H       -10.9727282023        9.0601046263       26.0896261092
  H       -10.2013626903       10.3256932428       26.9602688695
  C        -4.1793272238       15.1335041714       38.4165368957
  N        -4.0131996210       16.5071874853       38.5058108383
  O        -3.0550916502       18.2236049862       37.2001739787
  S        -5.1179643588       14.3724130695       39.8250527640
  C        -4.2201289308       17.4263681364       39.6354246353
  H        -4.3157834007       18.4814817743       39.2375834508
  H        -5.1665533020       17.1970761484       40.0493645237
  C        -3.0197213515       17.3108731501       40.5689931017
  H        -3.2023194600       17.8783704885       41.4249734092
  H        -3.1681214333       16.2609775012       40.7976220213
  H        -1.9943121820       17.4741632233       40.1395813914
