352
i=
  H         2.7150685559        3.9114716844       12.2994615815
  C         3.1117783740        2.9979880891       12.6221083629
  H         2.2639989354        2.2731471296       12.4811744287
  C         4.2288398208        2.6750327870       11.6149124984
  C         3.6568450220        3.1368450600       14.0280937481
  C         3.6627528858        2.4701143062       10.2055455713
  H         4.9099842196        1.8005108247       11.9782950188
  H         4.9314708020        3.4861061169       11.5110263368
  H         2.9565521955        3.6358138755       14.7254159888
  H         4.6532655470        3.5628642329       14.1058523750
  H         3.8164427747        2.1437677359       14.4167561164
  C         4.4604502247        1.4013766689        9.3319784618
  H         2.6378499994        2.2450977090       10.2542712755
  H         3.7025644829        3.4416107538        9.7608749894
  C         5.1059564885        1.8973202415        8.0603945934
  H         3.7740638543        0.6767303832        8.9527624573
  H         5.2868600123        0.9280773187        9.9528351618
  C         6.3970622530        2.6692658279        8.3135114414
  H         4.2963904635        2.6199940327        7.6865288832
  H         5.2524673555        1.1037076572        7.3520628456
  C         7.6969975635        1.9047426681        8.5925065143
  H         6.6465553592        3.2443538212        7.4457440308
  H         6.1585548155        3.4018593187        9.1292035055
  C         8.9689308263        2.7587439238        8.9346835908
  H         7.8464007459        1.2775261950        7.7100258217
  H         7.4944268885        1.1248107931        9.3404275066
  C         8.5727223130        4.0592306837        9.6142619754
  C         9.5062960992        3.4681346459        7.7435204099
  C        10.0506055870        1.9856109880        9.7442697281
  C         8.7867349075        5.1902375153        8.7995772074
  C         7.9876406292        4.4789056765       10.8342216224
  C         9.4287761479        4.8184456141        7.6251432476
  C         9.9920440674        2.8077480879        6.6029535744
  H         9.6450393497        1.2754537681       10.4870842468
  H        10.4141816127        1.2455402014        9.0696976183
  C        11.2792712119        2.8613958665       10.0647317881
  S         8.2808220374        6.6366030074        9.4176418552
  C         7.6416497072        5.8394805018       10.8274388512
  H         7.8838831599        3.7918141975       11.6599201070
  C         9.8681524848        5.3938410366        6.4887410181
  H         9.8668888825        1.7329591418        6.6014767672
  C        10.4496122526        3.3895354084        5.4828566048
  H        10.9972347407        3.9133808376       10.4027886283
  H        11.7788975041        3.0017956037        9.1031499360
  C        12.1934309825        2.2436135801       11.1475539527
  C         7.1002799368        6.5613676953       12.0407869799
  C        10.4245385713        4.7630902934        5.3717189349
  H         9.8798815211        6.4942583123        6.4341423719
  C        10.8996347772        2.9834644911        4.2454083565
  H        13.1172749385        2.8448590972       11.1521070071
  H        12.5744873977        1.3366398714       10.8094188933
  C        11.5941271691        2.3444214578       12.5246515578
  C         7.2299734240        7.9646315100       12.3400161746
  C         6.6849548729        5.6150530754       13.1781234825
  C        10.9638124015        5.3876559333        4.0947331121
  C        11.2249752921        4.0362288921        3.4017115841
  S        11.1438235718        1.5079922865        3.4852558086
  H        11.0359030483        3.2673620215       12.6404475945
  H        10.9268988493        1.4822729711       12.6835249927
  C        12.6926699982        2.2832293697       13.5484403394
  N         7.5805934197        8.9065483812       11.4000071287
  C         7.1130827532        8.4566019332       13.5711550025
  C         6.5116782740        6.1775941622       14.4372409695
  H         6.4975294941        4.5729612631       13.0370057178
  C        12.2670698439        6.1849351246        4.4576733274
  C         9.9026616409        6.1580884072        3.2722590873
  C        11.6917170297        3.6175755570        2.1588862603
  C        11.6839918104        2.2970628907        2.0789465640
  H        13.3819501975        3.1272137389       13.3674233490
  H        13.4189846529        1.4990904193       13.3945045593
  C        12.1294398407        2.2910641380       14.9587188085
  S         7.8921847600       10.3397273235       12.1363967407
  N         7.4761243101        9.7984145824       13.6247975908
  C         6.7926153334        7.6865139736       14.7141880625
  H         6.1370618005        5.5139813924       15.2288185125
  H        12.1267796220        6.9738353774        5.1960409409
  H        12.5045747093        6.7114857253        3.5333924202
  C        13.5190238373        5.3487735643        4.8490396300
  H         9.8616046374        7.2149537257        3.6063670542
  H        10.1343571272        6.3057006954        2.2099896368
  C         8.4998055569        5.4276270278        3.2092591121
  H        12.0693414396        4.3814626098        1.4620329439
  C        11.9994615776        1.4426201908        0.9184428030
  H        11.8189440335        3.3056970377       15.0693337476
  H        11.2996164207        1.5729363387       15.0942480135
  C        13.1891310093        1.9167205604       16.0444798720
  C         6.7071888527        8.3037446412       15.9940737178
  H        13.2350219717        4.4580750338        5.3970268937
  H        14.0008865911        5.0676059514        3.9276767922
  C        14.5670416220        6.2186820108        5.5377711477
  H         8.2318255046        5.0429002135        4.1983405617
  H         8.4270941828        4.6668642073        2.4286791739
  C         7.3994151220        6.4359565694        2.8441021899
  C        12.0011305431        0.0616640263        0.8212855206
  C        12.4139041670        2.1414180544       -0.3231143336
  H        14.2441576403        1.7057688833       15.6724351293
  H        12.9769323341        0.9381555566       16.4121940484
  C        13.0286712823        2.7637407330       17.2312480902
  H         7.0687120402        9.3100312359       15.8949885701
  C         6.4116653215        7.8152865565       17.2327878473
  H        14.2441842167        6.8781906689        6.4052107861
  H        15.0107303265        6.8603388954        4.7351679164
  C        15.6571099500        5.4006725330        6.0772061287
  H         7.3103236955        7.0873825073        3.7173541276
  H         7.7463725923        7.1151572255        2.0312109069
  C         5.9900424186        5.9560846752        2.5117677096
  N        11.6671662165       -0.8124630460        1.8392176340
  C        12.2683235569       -0.6326540035       -0.3680667121
  C        12.5898644679        1.4865750239       -1.5325890104
  H        12.6910926802        3.1304253539       -0.3238173646
  H        12.0781944916        3.3183263420       17.2820453224
  H        13.8727676936        3.4634106679       17.2515809758
  H        12.8775938647        2.1414610897       18.0909514017
  S         6.0555681618        6.2152124481       17.7117465552
  C         6.3505444394        8.8296452660       18.3391913112
  H        15.2996516029        5.0450931784        7.0206524796
  H        15.9298852273        4.5863308870        5.4892413368
  C        16.8689282884        6.2157729697        6.3856922612
  H         5.6388523567        5.2224936738        3.2377595847
  H         6.0651539179        5.4715230766        1.5505830811
  C         4.9280314718        7.0231973776        2.5034412449
  S        11.4700971046       -2.3582526797        1.2316299013
  N        11.9701542992       -1.9772834046       -0.2791954759
  C        12.6559984225       -0.0223450275       -1.5438947164
  H        12.8515068192        2.1688515687       -2.3430480484
  C         5.7701010954        6.8379656519       19.2874406393
  N         5.9053326106        8.2074589121       19.4700095962
  O         6.4204890582       10.0413608283       18.1548409779
  H        17.2202756281        6.5796255408        5.4129973809
  H        16.5090577155        6.9599337386        7.1094857437
  C        17.9441473401        5.2497317285        7.0287214016
  H         3.8703183579        6.7893784320        2.5613230193
  H         5.1182144406        7.5140710567        3.4847018576
  C         5.0295025948        8.0229133010        1.3646361453
  C        12.8403625126       -0.7995745728       -2.7291016602
  S         5.6932035556        5.8435632404       20.7348974091
  C         5.8911448305        8.9276553662       20.6906845792
  H        17.4486561934        4.5817061373        7.7194049681
  H        18.3781152582        4.5526707048        6.3011951855
  C        19.1176640198        5.8721952546        7.8080857912
  H         4.6474564936        7.5506092393        0.4729368996
  H         6.0459529549        8.2572810394        1.0327449782
  C         4.3721892246        9.3498295060        1.8136669283
  H        12.4774922756       -1.8120025625       -2.7188310498
  C        13.2635005836       -0.3566946223       -3.9534732993
  H         5.1988433810        8.4692639574       21.4200293272
  H         5.6030747904        9.9271617339       20.5481980756
  C         7.2716945661        9.1554683411       21.3635501469
  H        19.3732456985        5.1172401616        8.5223508371
  H        18.8220901878        6.8382629942        8.2534228695
  C        20.3284961084        5.9820684024        6.8326843963
  H         3.4358076805        9.2124483376        2.4065213673
  H         4.9922980482        9.9740647930        2.5352655815
  C         3.9438341629       10.1415167923        0.5971401204
  S        13.9251089537        1.1267591466       -4.4203229356
  C        13.1697290045       -1.3641204088       -5.0417527234
  H         7.6005600955        8.3916698657       22.0879953273
  H         7.3821836860       10.1664820706       21.7782109029
  H         8.0958866655        9.2113673196       20.6460257084
  H        20.0936065628        6.8311652427        6.0561073866
  H        21.2265592600        6.2303830082        7.2608889231
  H        20.5320054878        4.9959869780        6.3345418479
  H         3.3575266441       10.9749092076        0.8582627651
  H         4.8310176150       10.3428813541        0.0124885147
  H         3.2864484685        9.4845588564        0.0051216573
  C        14.1642913530        0.3577224243       -6.0811335844
  N        13.8757453590       -0.9586424082       -6.1112510160
  O        12.7546206372       -2.4724700913       -4.8900973720
  S        15.3145830216        0.9107796105       -7.2942035820
  C        14.0863583460       -1.8242671372       -7.2435578802
  H        13.9795091889       -2.8456016986       -7.0510170169
  H        15.0611887206       -1.6805272209       -7.6715018064
  C        12.8751168678       -1.5929048687       -8.1927476927
  H        12.8792579918       -0.5965675766       -8.5906812950
  H        11.9585392888       -1.8280216825       -7.7977829074
  H        13.1016931749       -2.1378008965       -9.0081668312
  H        -3.9425990409       14.7051719301       16.5304577142
  C        -3.2546769532       13.8612425301       16.4204942897
  H        -3.8136053884       12.9695391105       16.5174313107
  C        -2.2660420794       13.9933626429       17.4439339652
  C        -2.5815729050       13.8047318385       15.0238389064
  C        -2.6340138504       13.1665847379       18.6222465617
  H        -1.2133140947       13.7600184635       17.1104891022
  H        -2.2440853680       15.0488301675       17.6889410909
  H        -1.7001986478       14.4834537848       14.9344507425
  H        -2.1539554295       12.7874023253       14.8797357968
  H        -3.2776405477       13.9876679570       14.1705387280
  C        -2.2427720748       14.0474455477       19.8392202502
  H        -1.8769496460       12.3599859950       18.6238004909
  H        -3.6228714248       12.7915433074       18.8533794814
  C        -2.4085679482       13.3821983138       21.2317842831
  H        -1.1786356008       14.3599041236       19.7091911636
  H        -2.8898709331       14.9133702077       19.7997819314
  C        -1.1542378758       12.7124435886       21.6825965836
  H        -3.2640995150       12.6288135501       21.2360575643
  H        -2.7923738832       14.0770817351       21.9655753511
  C        -0.1013491935       13.6505355136       22.4110216104
  H        -1.4285897722       11.9489388152       22.3684781609
  H        -0.7418287924       12.1591343123       20.7526456391
  C         1.0348513185       13.0155277254       23.2477532872
  H         0.4660556091       14.2467664336       21.5847317614
  H        -0.6687869871       14.4140667050       22.9257513473
  C         1.4318028670       11.6781853377       22.6274065273
  C         0.6310003422       12.3122195515       24.4772374012
  C         2.1816969301       14.0157512478       23.4782676963
  C         1.2273233373       10.5877163198       23.4407159454
  C         2.0321365362       11.3227524852       21.4386851210
  C         0.6282039190       10.9729910447       24.6146130394
  C         0.0811734630       12.9768803614       25.5920058919
  H         2.2777314650       14.6527459487       22.5672063844
  H         1.9833916929       14.6649674153       24.3405424011
  C         3.5317775110       13.3306763638       23.6532463177
  S         1.6613388424        9.0697195778       22.6077087613
  C         2.1321552339        9.9989137461       21.2945524466
  H         2.1261738494       12.1077246328       20.6668386041
  C         0.2210319305       10.3116307433       25.7210956198
  H         0.0041723840       14.0891448431       25.4841187730
  C        -0.2772696690       12.3713646909       26.7442346613
  H         3.7208716081       12.7530388132       22.8029157928
  H         3.4282495498       12.5889669546       24.3785838662
  C         4.7655794389       14.3354918063       23.7899766658
  C         2.4744225437        9.2839181280       20.0477105946
  C        -0.2669188232       11.0019737522       26.8609889486
  H         0.1895220214        9.2085781068       25.6891619392
  C        -0.7056872529       12.8922882743       27.9602830136
  H         5.5415198416       13.8133743883       24.3361202565
  H         4.4977151265       15.2058965233       24.4067166721
  C         5.3079286182       14.8515359105       22.4682122683
  C         2.4883632967        7.8722076289       19.7592647566
  C         2.8753035415       10.1237522332       18.9016043790
  C        -0.6263731122       10.3812924400       28.2400554605
  C        -0.8853902715       11.8235904536       28.8432239678
  S        -1.0670691280       14.4128428146       28.6347904274
  H         5.9219613675       15.7218052584       22.8071067277
  H         4.4258678727       15.2350635270       21.9213791891
  C         6.2113088078       13.9158832121       21.5880852254
  N         2.1814738187        6.8128557841       20.6409108523
  C         2.7711151617        7.3535960912       18.4398443349
  C         3.1580586231        9.5895914785       17.6650809616
  H         2.7188629902       11.1403292068       19.0689113337
  C         0.5697667197        9.7367220332       28.9336209750
  C        -1.8694272102        9.5087817087       28.3379709245
  C        -1.2297049052       12.2740179703       30.1259711020
  C        -1.3560321888       13.6281823669       30.1377516428
  H         6.9914828148       14.5761449095       21.2186837662
  H         6.6597073761       13.0808670553       22.1439705115
  C         5.4931976763       13.2953086504       20.4059523098
  S         2.3588310925        5.3429016344       19.8875815247
  N         2.8030397031        5.9634288047       18.4367339290
  C         3.0961802294        8.1435370960       17.3187509576
  H         3.5371347355       10.1897330152       16.8531809805
  H         0.9222430394        8.9050210492       28.2652998220
  H         0.1879391370        9.3382574660       29.8496656634
  C         1.8109639805       10.6326626967       29.1991823894
  H        -1.6923107097        8.5089370491       27.8166004058
  H        -2.0365965933        9.3429336483       29.3785088333
  C        -3.0814309233       10.0850110928       27.6292972779
  H        -1.3690541573       11.4754511556       30.8658515748
  C        -1.7372199663       14.4290332541       31.3759750628
  H         4.6668323417       13.9505597467       20.1802688269
  H         5.0770805548       12.3198782804       20.6003518188
  C         6.3570034741       13.1771839939       19.1592507166
  C         3.3558928660        7.5326367482       15.9942150534
  H         2.0332093464       11.3092558541       28.3004208616
  H         1.5511707875       11.3648128987       29.9952533632
  C         3.0081245739        9.8000762719       29.8319200284
  H        -2.9243160061       10.4507446105       26.6581458286
  H        -3.2584487359       11.0112979388       28.2248867320
  C        -4.1850426348        9.1231523236       27.5524745673
  C        -1.7801472809       15.8072088438       31.5743289290
  C        -1.9233043176       13.7016920515       32.5957298479
  H         7.0746903467       14.0455737970       19.0328419157
  H         7.0390772481       12.3220199702       19.1952825770
  C         5.4136756055       13.0752000857       17.9405775877
  H         3.2037370607        6.4760026165       15.9527883919
  C         3.7297115516        8.1067411667       14.7814853192
  H         3.4315540699        9.2215767222       29.0679045176
  H         2.6443506933        9.0485272741       30.5720509054
  C         4.0781325401       10.5853509973       30.5332262878
  H        -3.8250229198        8.3141812326       26.8916429378
  H        -4.4444338020        8.6112101220       28.4626886015
  C        -5.4381310241        9.8830129582       27.1165419761
  N        -1.4961422517       16.7457088235       30.5886943103
  C        -1.9300739691       16.4892148859       32.8282521433
  C        -2.1767556197       14.3006622260       33.8450632201
  H        -1.9668194388       12.6586724991       32.5835612771
  H         5.8036785701       13.5244817386       17.0812300312
  H         5.3079037994       11.9811487517       17.7181130374
  H         4.4695658929       13.5434791545       18.2154305631
  S         4.0171986264        9.6960776952       14.4099497590
  C         3.6751981750        7.1937421610       13.6354253986
  H         4.1354096965       11.5900064756       30.0068853348
  H         3.6434186743       10.8170534711       31.5234425200
  C         5.5609269181       10.0576566208       30.4367315460
  H        -5.7363104477       10.6078348432       27.8470100692
  H        -6.3420748827        9.3054779836       27.2511562250
  C        -5.4081449283       10.3296576745       25.6555274164
  S        -1.6901316413       18.2136140880       31.2158547280
  N        -1.9979766858       17.8365746506       32.7478685460
  C        -2.2388202620       15.7463625704       33.9611877302
  H        -2.3603392719       13.6462638466       34.7170674602
  C         4.0788625707        9.1470681603       12.6553832627
  N         3.9856225985        7.8419347599       12.4958446620
  O         3.4912739356        5.9698293587       13.7330081022
  H         6.1705230906       10.6888766498       31.0501416993
  H         5.8562258912        9.9543519104       29.4044583523
  C         5.7039065399        8.6785239032       31.0727218603
  H        -4.4767257535       10.9628652629       25.5078404590
  H        -5.4017580216        9.4564693860       25.0317658895
  C        -6.6480478993       11.1578017932       25.2013189483
  C        -2.5560409668       16.3413553893       35.2544950094
  S         4.5354820842       10.2521600538       11.3727611947
  C         3.9180476735        7.1353187926       11.2072567318
  H         6.0102553493        8.8324917789       32.1588806322
  H         4.7261039227        8.2847715490       31.1905917135
  C         6.7631985947        7.6791751673       30.5377256237
  H        -6.3595102516       11.6183197282       24.2745179932
  H        -6.8005088160       11.9759878759       25.8614744501
  C        -7.9537545841       10.4263471458       24.9533586624
  H        -2.4908475097       17.3945340372       35.3117845887
  C        -3.2797767432       15.9432343403       36.3529226087
  H         4.4412640967        7.7068088056       10.5064604139
  H         4.3518149134        6.1598394798       11.2183069415
  C         2.4941794279        7.0522712114       10.6114882771
  H         7.7217456372        7.9858908009       30.7868905267
  H         6.7307422884        7.7440893094       29.4811209977
  C         6.4428792991        6.2564663371       31.0270961830
  H        -8.4013189941       10.7705928757       24.0281861250
  H        -7.7184789677        9.4317607039       24.6915285782
  C        -8.9900400363       10.7598775925       26.0335982003
  S        -3.8801353491       14.3124159025       36.6137283229
  C        -3.5703117275       16.9018613060       37.4600380796
  H         2.1537656404        8.0199311562       10.1969273781
  H         2.2972293871        6.2913127189        9.9076320388
  H         1.8314632079        6.9293247613       11.4405343908
  H         6.8215394905        6.2089768351       32.0498583506
  H         6.9457294432        5.5563283558       30.3674850375
  H         5.3131120504        6.1474323700       31.1004685758
  H        -9.0440082697       11.7712858041       26.3834795636
  H        -8.7542666181       10.1340517672       26.8686604489
  H        -9.9921576481       10.3234885501       25.7252285461
  C        -4.3535172334       14.8901670207       38.2066302876
  N        -4.1304259135       16.2217568236       38.4687959636
  O        -3.0992545101       18.0183479429       37.5672512189
  S        -5.1615854326       13.9157136689       39.4075584836
  C        -4.4740957013       16.7973731779       39.7222140465
  H        -4.7554312023       17.7631933068       39.6101316669
  H        -5.3584723009       16.3327215341       40.0645837820
  C        -3.2463419109       16.7967420914       40.6153221121
  H        -2.3581176711       17.3518712487       40.2116451505
  H        -3.4350385653       17.2859353439       41.4884245004
  H        -2.9562498462       15.7834510910       40.8789757260
