352
i=
  H         5.3434938486        2.5231319411       12.5524603259
  C         4.3691692397        3.0480961539       12.4973923503
  H         4.5472362481        4.0344327135       12.2406454519
  C         3.5359187442        2.3931292067       11.3669821386
  C         3.7452287770        2.8618493544       13.8339944939
  C         4.3296063955        2.6545791187       10.0441186049
  H         2.4906237962        2.6301903831       11.1759891318
  H         3.5212715984        1.3497017560       11.4537915154
  H         2.7211924748        3.2275439762       13.9213276132
  H         4.3500481568        3.4140681026       14.5891798864
  H         3.6436615470        1.7755235482       14.0322497248
  C         5.3309691360        1.4940344966        9.6838831033
  H         3.6272648415        2.8464311858        9.1472551543
  H         4.8612477065        3.5741512853       10.1520965536
  C         6.1084075116        1.5624841267        8.4122949428
  H         4.7992033266        0.5716515998        9.6883290751
  H         5.8781353178        1.3908715635       10.5593699636
  C         7.2104660780        2.5315289189        8.4759598602
  H         5.5060274822        1.7347822526        7.5526946805
  H         6.4311720845        0.5926383041        8.0096124937
  C         8.4633058824        1.9743943722        9.2079299483
  H         7.5852220175        2.6655562958        7.4961770861
  H         6.8957440941        3.5282277124        8.8302149227
  C         9.6381136765        2.9857882219        9.3036275917
  H         8.7569711346        1.1003004785        8.6165285196
  H         8.1789703144        1.5308433012       10.2041301464
  C         9.2484325102        4.3521490359        9.9552334152
  C         9.9530174745        3.6971493004        8.0191871529
  C        10.8691688656        2.3756307712        9.9618565243
  C         9.3381004814        5.4433968216        9.1812600483
  C         8.6407316607        4.6938396755       11.1711264592
  C         9.8085521654        5.0296895976        7.8983929650
  C        10.3501227834        3.0423830965        6.8609819551
  H        10.5568359133        1.9476075249       10.8971443006
  H        11.2458456834        1.5756412905        9.2862869168
  C        12.0437777402        3.3653831023       10.1325764154
  S         8.8327767303        6.9213839445        9.9152011095
  C         8.5325077053        6.0753574727       11.3392555645
  H         8.4828799059        3.9327214410       11.8794633437
  C        10.1569570505        5.6833896045        6.7307577380
  H        10.3734055405        1.9746748357        6.8380044428
  C        10.5639750057        3.7231952132        5.6921445140
  H        11.6737943005        4.2628969656       10.6224879578
  H        12.3802488935        3.7483858357        9.2114794246
  C        13.0677623003        2.8519034940       11.1817463853
  C         8.2038911874        6.7853411701       12.6232346099
  C        10.6011259373        5.0374815379        5.5491232056
  H         9.9109689493        6.7295194968        6.6357541878
  C        10.9588471076        3.2835573910        4.4460835595
  H        14.0662784574        3.3200905576       10.9985534444
  H        13.0650344969        1.7691788701       11.0910562324
  C        12.5708423769        3.0270453018       12.6154962849
  C         8.1935034828        8.1749877851       12.8397100614
  C         7.7101679804        5.9688279760       13.7183641833
  C        10.9286032366        5.7114490629        4.2964304607
  C        11.1942294558        4.3536879810        3.6185491634
  S        11.2678294524        1.7640658218        3.7135921931
  H        12.1826746068        4.0787237319       12.6254930121
  H        11.7498128135        2.2968806546       12.6695021132
  C        13.5791302719        2.6396015153       13.6683247512
  N         8.5127079875        9.1279437163       11.9100671766
  C         7.8209790704        8.7112588972       14.0661312665
  C         7.3400591589        6.5401227895       14.9175245771
  H         7.5942068903        4.9239744022       13.6437726997
  C        12.2258276175        6.5895805832        4.3048183070
  C         9.7329921970        6.4937787724        3.5779935818
  C        11.5707596167        3.8916554813        2.3075448006
  C        11.5886913417        2.5389762354        2.2290364334
  H        14.3478725560        3.3817645541       13.7829979717
  H        13.9538755713        1.6778063141       13.4552461851
  C        12.9250166639        2.5407819752       15.0429577985
  S         8.3688584516       10.6778901936       12.5278429645
  N         7.7947423626       10.1406459543       13.9938253929
  C         7.3700169051        7.9917866483       15.1494826015
  H         7.0376522007        5.8651654569       15.7246801954
  H        12.0755449103        7.4506697083        4.9807842845
  H        12.4402099861        6.9475418192        3.2482712720
  C        13.4803647437        5.8536949085        4.7916211196
  H         9.6966403932        7.5290944041        3.8523768162
  H        10.0110508805        6.6303413693        2.5333159957
  C         8.3654498244        5.8118252388        3.6563629281
  H        11.7182562804        4.6602303383        1.5490492187
  C        11.7211686201        1.7191277191        0.9824300245
  H        12.3416525520        3.4639150112       15.1137219110
  H        12.2061983896        1.7578089802       15.0828306673
  C        13.9365096929        2.4112355258       16.2419181362
  C         7.0567637761        8.6841572028       16.3382191949
  H        13.2705316573        5.0805020484        5.5989263463
  H        13.9548153197        5.2003526222        3.9580240100
  C        14.6943482980        6.6487257470        5.2474652379
  H         8.0270949556        5.8933645997        4.7194369320
  H         8.5071344201        4.7555167939        3.4143991735
  C         7.3779141896        6.3881979072        2.6250969533
  C        11.8727773219        0.2786122017        0.7837459717
  C        12.0095410481        2.4574418164       -0.2692518780
  H        14.7703714489        3.1371809743       16.0787267198
  H        14.3187036689        1.4193564225       16.2289145354
  C        13.2975362827        2.5582922493       17.6098247049
  H         7.1400694579        9.7495446298       16.2304861432
  C         6.7058979550        8.2641015794       17.5947772128
  H        14.4042815308        7.3232965840        6.0578117309
  H        15.1217479403        7.2543060429        4.4854508512
  C        15.8902579610        5.7159852050        5.6878169779
  H         6.9898222443        7.3042987618        3.0194687720
  H         7.7786254474        6.6619877078        1.6656270249
  C         6.1632972681        5.4684415978        2.5695358293
  N        11.7366491202       -0.8060135694        1.7154389355
  C        12.1651532262       -0.3280619129       -0.4552164440
  C        12.1711935375        1.8116202342       -1.4869533002
  H        11.9574172069        3.5502742579       -0.2656965208
  H        12.8020956790        1.5798694223       17.7132130964
  H        12.5872683829        3.2625970973       17.7211191400
  H        14.1832481699        2.7167501580       18.3280036245
  S         6.4463503122        6.6333381420       18.0638599400
  C         6.4462430731        9.2746025410       18.6202547266
  H        15.4174216713        5.0284935815        6.4040997893
  H        16.3911846360        5.1607408455        4.9027775404
  C        17.0195643706        6.4533899299        6.3491714424
  H         5.6146794834        5.3100376293        3.5417357418
  H         6.5307334027        4.5140800702        2.1622056018
  C         5.0446483505        5.8732734279        1.5781196087
  S        11.7169394571       -2.2164950209        0.9846026626
  N        12.1404641790       -1.7391389135       -0.4352928363
  C        12.2627303811        0.3476837377       -1.6398289888
  H        12.3796045962        2.4444546648       -2.3358124847
  C         6.1256691099        7.2708590045       19.6828617010
  N         6.1139071471        8.6752479970       19.7619720317
  O         6.3585520963       10.4391821475       18.4269905597
  H        17.5247761601        7.0724312242        5.6336968042
  H        16.5762646368        7.0566597303        7.1029781787
  C        17.7367369129        5.3619892654        7.1194623886
  H         5.5066996529        5.9264841390        0.6044001669
  H         4.3531873444        5.0697467327        1.4563874321
  C         4.4114365551        7.2907771366        1.8377378676
  C        12.5505663332       -0.3262205504       -2.8827315829
  S         5.8470080187        6.3189677965       21.0763836675
  C         6.1747198885        9.3503258920       21.0633471090
  H        17.1129325221        4.9997534005        7.9476236105
  H        17.9255100925        4.4637038416        6.5262518668
  C        19.0508305107        5.9605409093        7.6115088473
  H         4.9123895764        7.5988061732        2.7554573718
  H         3.3662408622        7.2151374378        2.1706055944
  C         4.5201999672        8.4587564035        0.7719375839
  H        12.1662472354       -1.3091844038       -2.8759515160
  C        13.0420176531        0.0119674593       -4.1047244562
  H         5.4870349367        9.0583284291       21.8870089713
  H         5.9811152893       10.4110645260       20.9804681358
  C         7.6243760464        9.2967365310       21.5042348115
  H        19.4346798814        5.2547846249        8.3774403462
  H        18.8622673126        6.8946751169        8.0897030133
  C        20.1548036925        6.0825707410        6.5529056410
  H         5.4937096582        8.3821961916        0.2255394283
  H         3.7761883038        8.3350348916        0.0395404092
  C         4.4964631959        9.8075058312        1.4560534871
  S        13.5497709460        1.6250647724       -4.5603603658
  C        13.2408193017       -1.0357552238       -5.1656919159
  H         7.9388805690        8.4946511180       22.1388914192
  H         7.8289247160       10.1947047381       22.0882633697
  H         8.2352853979        9.3552863239       20.5926908033
  H        20.4924161423        5.1861869911        6.1523325449
  H        19.8719952799        6.6688320708        5.6492415235
  H        21.0374617568        6.6707928662        6.9553844848
  H         5.0935280536        9.8930156236        2.3981523021
  H         4.7189045570       10.5726639935        0.7005718242
  H         3.5015946186        9.8849548776        1.9177775853
  C        13.8880529956        0.9225753106       -6.2569224080
  N        13.7425674489       -0.4318095729       -6.3105717301
  O        12.9358755217       -2.2263717182       -5.0439417055
  S        14.5481819639        1.7277163116       -7.6474461858
  C        13.8743316940       -1.3150781751       -7.5382185364
  H        14.0362835591       -2.3357207054       -7.2742788386
  H        14.7946403955       -0.9888480516       -8.0833899163
  C        12.6789904739       -1.1991222283       -8.4650235774
  H        13.0267379787       -1.3263425721       -9.4810640598
  H        12.1459704032       -0.2071122046       -8.3932524085
  H        12.1247227086       -2.0326642945       -8.2156263388
  H        -4.5929341445       14.2172718522       16.4397935610
  C        -3.6791608331       13.6648559076       16.4723748189
  H        -3.9686677663       12.6809151568       16.2607034139
  C        -2.7500349225       13.8453172927       17.6321430953
  C        -2.9091120195       14.0210738682       15.1662067191
  C        -3.2958160408       13.6399046721       19.0357866862
  H        -1.8647391762       13.0979075376       17.4449829804
  H        -2.3660100009       14.8921872698       17.5388612605
  H        -2.3105209562       13.2514016827       14.7707587612
  H        -3.5860868757       14.3430177396       14.3425666638
  H        -2.2271131935       14.9071890361       15.3187806176
  C        -2.1058143824       13.5108146283       19.9911912225
  H        -3.8314388230       12.7119418611       19.1794384269
  H        -3.8870701421       14.4122912200       19.3080795133
  C        -2.4903965095       13.2886814695       21.4636125163
  H        -1.3434731906       12.7372622469       19.6516503357
  H        -1.6001230113       14.3902193352       19.8103468621
  C        -1.2723728890       12.7725357810       22.3625212223
  H        -3.2377158286       12.4461053004       21.4157887152
  H        -3.0887304684       14.1728504290       21.7825726182
  C        -0.1031409088       13.8131959425       22.4746888014
  H        -1.7493139842       12.4352231124       23.3485274036
  H        -0.8901556227       11.8769431220       21.9034915638
  C         1.2103843171       13.2087203934       23.2382652022
  H         0.1877040171       14.0251704666       21.4362877929
  H        -0.3897007793       14.8089580315       22.9127533091
  C         1.6919315560       11.8924387050       22.6326967296
  C         0.8235623561       12.4905793473       24.5865054438
  C         2.3575735245       14.2478869297       23.3438771447
  C         1.4717824827       10.8061739272       23.4366416609
  C         2.2405432482       11.5096677055       21.3836161703
  C         0.9162209454       11.1151401161       24.6887094045
  C         0.2393736324       13.0961660649       25.6402362454
  H         2.4176391184       14.7442900018       22.4271499312
  H         2.0454497973       14.8889210090       24.0935642356
  C         3.7357378100       13.6008882418       23.6521901866
  S         1.8738272493        9.3222444016       22.6779264680
  C         2.4344669816       10.1526685030       21.2764377120
  H         2.4372480927       12.3811650116       20.7203791195
  C         0.4222582115       10.4975572466       25.8588709396
  H         0.3132608171       14.1582383032       25.7324868727
  C        -0.1518228738       12.4813776020       26.8339923300
  H         4.0363345348       12.9489708200       22.8380778279
  H         3.5702276375       13.0354342877       24.5630121008
  C         4.9110239425       14.6582778239       23.7782938149
  C         2.7186575295        9.4376553083       19.9910638793
  C        -0.1013034356       11.1643810039       26.9750313659
  H         0.3141469300        9.4385210869       25.8699082294
  C        -0.6019779461       12.8909232413       28.0529106313
  H         5.7077777428       14.2696095604       24.4601377563
  H         4.6707356806       15.5692200629       24.2842343932
  C         5.5424676631       14.9033945086       22.4341887116
  C         2.6403702697        8.0822845848       19.6869483520
  C         3.0169613513       10.2346477702       18.8152881449
  C        -0.5779758577       10.4260340226       28.1729196125
  C        -0.9299128359       11.7714028841       28.8437956848
  S        -0.9171756224       14.3229822633       28.8871965634
  H         5.8670398787       15.9263763047       22.4433118873
  H         4.6960934245       14.6731397111       21.7824393922
  C         6.7178376377       13.9877525928       22.1659038729
  N         2.3773643355        7.0728931896       20.6544610738
  C         2.7802269568        7.5698271780       18.4359391035
  C         3.3095187370        9.8188044094       17.5585001247
  H         3.2404430610       11.2727417480       19.0051070663
  C         0.6287342235        9.5880968492       28.7580849408
  C        -1.7487665766        9.5404827103       27.8570360340
  C        -1.4518358091       12.2235452709       30.0645954937
  C        -1.4020493118       13.5452755539       30.2998076227
  H         7.5000499517       14.5902169587       21.7153886384
  H         7.2420993789       13.4904938889       23.0442152343
  C         6.3705799404       12.8873724786       21.1550423170
  S         2.0997399024        5.6561886157       19.8903661737
  N         2.5909460309        6.1835744954       18.4119162116
  C         3.1334891403        8.3582206251       17.2704979087
  H         3.4074960375       10.5732068262       16.7744606317
  H         0.8795319346        8.7838363336       28.0933216919
  H         0.1818748512        9.0704782585       29.6321562953
  C         1.9107347866       10.3679093066       29.1056737074
  H        -1.4118228366        8.9295071640       27.0769617190
  H        -2.0504938084        8.9825798499       28.6964181736
  C        -2.9824661044       10.2139002925       27.3137195883
  H        -1.6855139900       11.4349605109       30.7171832969
  C        -1.7873798076       14.1850153159       31.5635781757
  H         5.5356766898       12.3917292299       21.5359210109
  H         7.2509040635       12.1812237999       21.0182122771
  C         6.1261470199       13.4601436279       19.7648636274
  C         3.3528609546        7.6340452561       16.1015706244
  H         2.1560639266       11.0282590327       28.3763873433
  H         1.5740612391       10.8967898928       29.9895956257
  C         3.0844623484        9.4861412900       29.4773162875
  H        -2.6742542694       10.7956821561       26.4563603942
  H        -3.2669310257       10.9674815938       28.0661033085
  C        -4.2469146110        9.3471873292       26.8361446679
  C        -1.9249806509       15.5796986833       31.8074748596
  C        -1.9029243539       13.3917517099       32.8634945654
  H         5.5730916858       12.6746322141       19.2982085402
  H         5.5478573937       14.4290699827       19.7981864544
  C         7.4602179111       13.6389356943       19.0161009031
  H         3.1516189109        6.6140983030       16.0235564802
  C         3.7796362602        8.0591806952       14.8557213127
  H         3.5657702739        8.9526624026       28.6710878888
  H         2.7635093262        8.6115785517       29.9126652638
  C         4.0281215532       10.0746454746       30.5115444064
  H        -3.9062943345        8.7739109763       26.0226822125
  H        -4.6275325128        8.8169649346       27.7057430043
  C        -5.3712720606       10.3567817608       26.5233520334
  N        -1.7700226263       16.5753550809       30.8527447811
  C        -2.1661192452       16.1424198863       33.0906962745
  C        -2.3455204228       13.9402833794       34.0715813612
  H        -1.6219426972       12.3777904642       32.9441178233
  H         7.9973292632       14.5054734485       19.3277513871
  H         7.9651535718       12.6949885754       19.1198520351
  H         7.2319552416       13.7387691609       17.9428529587
  S         4.1806861883        9.7262646807       14.4348960511
  C         4.0341151583        7.0483927199       13.7629137928
  H         4.0431371140       11.1955065630       30.3003006755
  H         3.7078397565        9.9585084905       31.5609168740
  C         5.4455266975        9.6345045731       30.3520733027
  H        -4.8794765814       10.9871197967       25.8062069457
  H        -5.5093104500       10.8843778839       27.4631485365
  C        -6.5582929496        9.7335253398       25.8882599596
  S        -1.7253694952       18.0323078058       31.5767946706
  N        -2.2511993174       17.5208338932       33.0186844337
  C        -2.4744753905       15.3444686571       34.2088566585
  H        -2.4590180014       13.3253644280       34.9414486482
  C         4.4124923091        9.0583950334       12.7848501295
  N         4.2968573256        7.7186278334       12.5782302706
  O         3.9468405707        5.8397220568       13.8460107627
  H         6.0469179133       10.5103628896       30.5274562095
  H         5.6725851800        9.3005021731       29.3322851375
  C         5.9008109995        8.5339330145       31.2296485755
  H        -6.2197009568        9.0260687416       25.1724594620
  H        -7.0063341102        9.0505842026       26.5783925377
  C        -7.5895545051       10.7166838300       25.3634459940
  C        -2.7108101360       16.1385141257       35.4133677325
  S         5.0477756722        9.9899690319       11.3811705043
  C         4.2788740455        7.0772187427       11.2523919668
  H         6.9942220343        8.3707370586       31.1053572659
  H         5.7986700130        8.8283427233       32.2929563821
  C         5.0860522825        7.2236353057       30.9860535859
  H        -7.0926936217       11.4597814578       24.6482834711
  H        -8.0548524613       11.4187239059       26.1486593533
  C        -8.6788575073        9.9494781441       24.6321879625
  H        -2.5485193804       17.2551371973       35.3210990479
  C        -3.1564308026       15.7422004109       36.7058995131
  H         4.6826317393        7.6240807906       10.4215184930
  H         4.8911311397        6.1775741497       11.3869569988
  C         2.8596421361        6.7060540542       10.8341655177
  H         5.0208826173        7.2126003337       29.9433307775
  H         4.0901723586        7.3673622320       31.3339169907
  C         5.8000214528        6.0221350516       31.5511165083
  H        -8.8284027523       10.2449361225       23.6227114607
  H        -8.4959517460        8.9439828898       24.4099571680
  C        -9.9233956175       10.1358720818       25.4751875612
  S        -3.6887497218       14.2011533005       37.1545819925
  C        -3.0746897934       16.7975485432       37.7549494537
  H         2.2932355567        7.3036308402       10.1019331943
  H         2.9135231503        5.6543665286       10.4883017943
  H         2.1320420870        6.6653214990       11.6800780538
  H         6.4391188646        5.4830042351       30.8404427174
  H         4.9865131342        5.2319818601       31.6456891952
  H         6.3066005892        6.1215197902       32.4930707853
  H       -10.7429350782        9.6376712865       25.0432237545
  H       -10.2094540260       11.1643436450       25.6073021123
  H        -9.9038705710        9.7336694742       26.4710773447
  C        -3.7374713331       14.8825740144       38.7641918066
  N        -3.5868513707       16.2200594623       38.8448887233
  O        -2.9315195072       18.0307707467       37.5232897284
  S        -4.4718997021       14.1249162082       40.1849480594
  C        -3.9705255827       17.0376854442       40.0693169585
  H        -4.3420973900       18.0167906235       39.7867794084
  H        -4.8878075867       16.6134393877       40.4501562691
  C        -2.8261235009       17.1693777025       41.0185403674
  H        -2.0204850935       16.4928589252       40.7225861146
  H        -2.2422701749       18.1002097313       41.0766084704
  H        -3.2395989615       16.8570708846       41.9638017916
