352
i=
  H         3.8126203642        1.3075631530       12.1420813886
  C         3.7092759080        2.2979742904       12.4340957046
  H         4.7042651132        2.7576291522       12.4853122368
  C         2.9933055706        2.9227235060       11.2247415047
  C         3.0075883520        2.3347789275       13.7873442650
  C         3.8220215683        2.9494202638        9.8969248931
  H         2.7439583375        3.9103402499       11.5670358811
  H         1.9961096274        2.4512431024       11.0268433155
  H         2.0273883615        1.9393848115       13.8128450508
  H         2.9208644040        3.2753166773       14.2308892078
  H         3.6397494068        1.5721843510       14.3851272956
  C         4.4343415823        1.6414409538        9.4123541581
  H         3.2778996841        3.6009413039        9.1851775240
  H         4.6822215284        3.5923941487       10.1585082067
  C         5.1346837582        1.7491256707        7.9960229806
  H         3.7041986706        0.8656509736        9.3079558428
  H         5.1544823521        1.3894630383       10.2260466382
  C         6.4116072514        2.6231444786        8.0724713151
  H         4.3879631760        2.1835189153        7.3108244243
  H         5.3350024964        0.6667641329        7.7649974119
  C         7.6068678606        1.9809799574        8.7706710278
  H         6.6773578285        2.9450281114        7.0718801871
  H         6.2006706677        3.5324909378        8.6804903724
  C         8.8138661879        2.8900852473        9.1270343934
  H         7.8688907734        1.1226559035        8.2246435463
  H         7.3143872253        1.6050910160        9.7126118991
  C         8.5472395523        4.2212709595        9.9225509987
  C         9.3420969664        3.6308180858        7.9890929077
  C         9.9227192055        2.0484338833        9.7433063677
  C         8.7328054966        5.3016284213        9.1228183295
  C         8.1077039264        4.4777354804       11.2028377528
  C         9.3346614694        4.9629752889        7.9344780905
  C         9.9700158736        3.1312750928        6.8451233983
  H         9.5017564324        1.5686334630       10.6654543744
  H        10.1522506640        1.3245875531        8.9873835316
  C        11.1148198307        2.8447377672       10.0973572648
  S         8.3894670790        6.8222502213        9.9202064742
  C         7.9931851225        5.8404076818       11.3885230367
  H         7.9612713512        3.5954869724       11.8757382529
  C         9.7560115485        5.7426434867        6.8837431985
  H        10.0913871832        2.0621740152        6.6735134544
  C        10.3074193424        3.7992665845        5.7531923509
  H        10.8270965407        3.8215960343       10.4299055200
  H        11.5475637383        3.0080628781        9.1659402844
  C        12.1724964672        2.2167963894       11.0110648256
  C         7.5785273066        6.5007362994       12.6489512844
  C        10.1683580014        5.1309444632        5.6636500433
  H         9.6242663583        6.8459422387        6.9327706317
  C        10.7005810813        3.4795648113        4.4395079282
  H        13.0063346707        2.9024316691       11.0027732689
  H        12.5577760563        1.3523002101       10.5269043986
  C        11.7407624718        2.2312948387       12.4772974477
  C         7.6667901985        7.9175890985       12.8720458690
  C         7.1210496483        5.7158071877       13.7819203152
  C        10.5305375926        5.8749415177        4.4158665325
  C        10.8736830722        4.5981760617        3.6357109262
  S        10.9857190887        1.9243291473        3.6013139828
  H        11.1450820074        3.1473237590       12.6016476981
  H        11.0714176786        1.3664639587       12.6526428689
  C        12.9663190247        2.1003166985       13.4503495348
  N         7.7866676819        8.9463086439       11.8937988069
  C         7.3404727191        8.4343065601       14.0977566116
  C         6.6548174221        6.2398933554       14.9907492075
  H         6.9829446036        4.6456651788       13.5586202878
  C        11.8298243020        6.6726316813        4.5071216185
  C         9.4034785448        6.8426900781        3.9599755332
  C        11.2801584039        4.1880609453        2.3882916116
  C        11.4270842377        2.8123218550        2.2067038624
  H        13.6809887577        2.8126906569       13.1320368950
  H        13.4075501788        1.1292815396       13.3726399904
  C        12.4844279685        2.2781445970       14.8832242810
  S         8.0280852883       10.3400635901       12.7672950368
  N         7.4752430030        9.8315864441       14.1829481278
  C         6.8819295514        7.6927860982       15.1766017121
  H         6.0754093981        5.5918217298       15.6516488241
  H        11.6808362386        7.4799700741        5.2732615595
  H        12.0222259866        7.1569349375        3.5517038833
  C        13.0934749275        5.9077209534        4.9801527126
  H         9.0639810051        7.5653937657        4.8158645591
  H         9.7713318980        7.4374363835        3.1565205754
  C         8.3773390775        6.0986906729        3.1182268754
  H        11.3652562178        4.9710048918        1.6175277512
  C        11.6299520495        2.1316853600        0.8806945831
  H        12.2559786472        3.2999780527       15.1649979814
  H        11.6690173921        1.6759685659       15.1168713313
  C        13.5400522619        1.9113423168       15.8924844465
  C         6.5582769634        8.4243014668       16.4353784207
  H        12.9411796400        5.3476841120        5.8708303828
  H        13.4098218708        5.2398698680        4.1657746209
  C        14.3087267450        6.8194594353        5.2443985419
  H         8.1068523875        5.1232264286        3.5677618517
  H         8.9003457138        5.8204061739        2.2353577607
  C         7.0687226962        6.9043196007        2.6504001870
  C        11.6852377452        0.7514011868        0.6055894345
  C        11.8021067705        2.9466192863       -0.3435403165
  H        14.4070418974        2.5045509989       15.9340632171
  H        13.7882857142        0.9047244353       15.5600424466
  C        13.1558948285        1.9722673681       17.3591278270
  H         6.7965830414        9.4596794516       16.4654279914
  C         6.3365162178        8.0973907976       17.6835400314
  H        13.9230584887        7.4708093520        6.0880860922
  H        14.4996023637        7.3812914758        4.2694918464
  C        15.5501908407        6.0297683752        5.4329988735
  H         6.6713385416        7.4491059737        3.5300810816
  H         7.5139664433        7.6775950018        2.0383501151
  C         5.8723917011        6.1929319293        2.0831859329
  N        11.2753022233       -0.2653015093        1.5349674267
  C        12.0087072244        0.1709722437       -0.6390066790
  C        12.0661284835        2.3810549031       -1.6156774758
  H        11.6322814703        4.0194318178       -0.2536351025
  H        13.7434290325        1.4832612446       18.0049049182
  H        12.1021684955        1.7835034717       17.5377018971
  H        13.2199330211        3.0721092851       17.5956906737
  S         6.0569985553        6.4634828404       18.2267662074
  C         6.3176901874        9.0892481868       18.7750109414
  H        15.5264312409        5.0920398021        4.8479787400
  H        16.3991580678        6.4901557123        4.8416111453
  C        15.9892744619        5.8136512722        6.8254786296
  H         5.4788817588        5.4347804057        2.7325490751
  H         6.1848815669        5.6725433704        1.2089562620
  C         4.7245416840        7.1473011708        1.5945148523
  S        11.4762841005       -1.7504671117        0.8224790512
  N        11.9370223345       -1.2365855040       -0.6115604242
  C        12.2509854615        0.9299186839       -1.8104057448
  H        12.0284130583        3.1018723293       -2.3859607017
  C         5.8003543813        7.1448096519       19.8299364800
  N         5.9905757474        8.4802119121       19.8895479842
  O         6.4567469416       10.3022759129       18.6195226598
  H        15.6826799859        6.6166137090        7.4736491864
  H        15.5053660821        4.9038677127        7.1230719716
  C        17.5302824744        5.4865519992        6.9612152072
  H         5.1037869441        7.5893290324        0.6361651598
  H         3.7757087942        6.5773538558        1.3027630430
  C         4.3158522905        8.3790454753        2.4581255658
  C        12.6364841194        0.3556039603       -2.9673654325
  S         5.4006740836        6.1205462401       21.2296649897
  C         5.7955369030        9.1444159750       21.2200005957
  H        17.8264448217        4.9335386435        7.8594438478
  H        17.7515783888        4.6017494125        6.2773553576
  C        18.4721477451        6.6800341809        6.6221074469
  H         5.1288172844        8.9930734648        2.8070038408
  H         3.9864972014        8.0193499729        3.5188752210
  C         3.1779513870        9.1916053663        1.8189254035
  H        12.2290114167       -0.6373959266       -3.0292905410
  C        12.9276383452        0.6944131044       -4.2044180952
  H         5.1448728465        8.6110704960       21.9534185579
  H         5.3895085933       10.0151605015       20.9832498175
  C         7.2862397979        9.3510886562       21.5688645835
  H        17.9822270197        7.5689374241        7.0872891000
  H        18.4723124076        6.9927038260        5.5692854808
  C        19.8720369287        6.2302215158        7.1102057108
  H         2.3710351420        8.6354214225        1.5061762448
  H         2.7686525202        9.7539785015        2.6722386056
  C         3.6800453759       10.2225776272        0.9197067371
  S        13.6087944999        2.1761071680       -4.8295996671
  C        13.1558748279       -0.4182505953       -5.1797622157
  H         7.6517466572        9.3151842884       22.6445141199
  H         7.7372500795       10.2298569469       21.0577331045
  H         7.7974176256        8.5152121940       21.0893233281
  H        20.5724767781        7.0191100406        7.0445314680
  H        19.8753979403        6.0743023898        8.1351792299
  H        20.1696350135        5.3403078672        6.6093892480
  H         3.4607107347       11.2033055558        1.3926369002
  H         4.7359731984       10.0358516474        0.9849035252
  H         3.4839697738       10.1138303895       -0.1193341749
  C        13.9429862234        1.3398364817       -6.3701698842
  N        13.7403857079       -0.0204906882       -6.3344177123
  O        12.8538348542       -1.6204015959       -4.9128243993
  S        14.6188908021        2.0302680950       -7.8201405519
  C        13.9796051401       -1.0192566987       -7.4014946432
  H        14.0672117604       -1.9904361092       -6.9566880461
  H        14.9399058252       -0.7321942969       -7.8607558386
  C        12.7950002291       -1.0030807297       -8.4168758410
  H        12.1671944586       -1.9294441582       -8.3306174862
  H        13.1875478231       -0.9451017748       -9.4209912154
  H        12.0579018645       -0.1352717207       -8.2601164118
  H        -2.2614568574       15.3017607455       15.3803506742
  C        -2.8028040520       14.5734250595       16.0242476744
  H        -3.6774087046       15.1184546683       16.4332791171
  C        -1.8757909708       14.3255288288       17.2436516537
  C        -3.1686365207       13.3745307145       15.2172009247
  C        -2.6263567953       13.9636785199       18.4696781690
  H        -1.0050975433       13.6229028740       17.0130348262
  H        -1.4139451316       15.2812316041       17.4546753108
  H        -3.8559154690       13.5665442972       14.3675548151
  H        -2.2540260233       12.8798153908       14.8627792945
  H        -3.7097992686       12.7427922779       15.8503187391
  C        -1.7679378763       13.8314301435       19.6583198749
  H        -3.1512296162       13.0408708309       18.2492724030
  H        -3.3645641970       14.7393255679       18.6460306828
  C        -2.4212376560       13.9238302457       21.0448000826
  H        -1.2164956546       12.9038237987       19.5241216653
  H        -0.9920238297       14.5796570755       19.5483321830
  C        -1.4635554329       13.2297921129       22.1012483587
  H        -3.3275930129       13.2962449780       21.0303562751
  H        -2.8769455974       14.9881432902       21.3359583146
  C        -0.2732292188       14.0979756136       22.4532017550
  H        -1.8628357991       12.7859554149       23.0442720546
  H        -1.0569277613       12.3770591952       21.5391477780
  C         0.8800603628       13.3402032261       23.1372035404
  H         0.0176611832       14.5029628608       21.5308908744
  H        -0.6724639754       15.0452367516       22.9342493112
  C         1.3203666861       12.0803970430       22.4686647459
  C         0.4265562203       12.6472493344       24.3640050275
  C         2.0816662138       14.3228670151       23.3744718942
  C         1.0997108997       10.9851750968       23.3012526799
  C         1.7130979372       11.6367003863       21.1575181651
  C         0.4932419948       11.3081985578       24.4783197761
  C        -0.0845358951       13.1824962416       25.5315765904
  H         2.1701069736       15.0029653070       22.5008192437
  H         2.0047258835       14.9068850313       24.3011935087
  C         3.4429923634       13.6617113094       23.3418237944
  S         1.5879411579        9.4410341891       22.6069039090
  C         1.9650103324       10.3244373630       21.1782766369
  H         1.8275377876       12.3556030827       20.3485371814
  C         0.0661157499       10.5897190791       25.5581989401
  H        -0.1061191767       14.2749216745       25.5981806509
  C        -0.3908177494       12.5205970131       26.7285043407
  H         3.5808523396       13.1969392454       22.3540947368
  H         3.3750958744       12.7769935801       24.0523074749
  C         4.5700646615       14.5874468120       23.7552271896
  C         2.5646008089        9.5597968309       20.0700004973
  C        -0.3719375258       11.1738851231       26.8146313653
  H         0.1887855209        9.4609723337       25.5177981469
  C        -0.9458039631       12.9168400768       27.8987343624
  H         5.3412625217       14.0671874344       24.3675547902
  H         4.1921265274       15.4180257949       24.2683697483
  C         5.2309261546       15.2315243589       22.5550718496
  C         2.5933942630        8.1264975943       19.8871494198
  C         2.8975113782       10.3801967540       18.9153451584
  C        -0.9331250166       10.5266024102       28.0397425889
  C        -1.2723921040       11.8522459769       28.6873812607
  S        -1.2065822768       14.3908604102       28.6677055526
  H         5.7869526628       16.0680077264       22.8785633733
  H         4.3190246776       15.5083826647       22.0064018737
  C         6.2851233993       14.4174997834       21.8052028794
  N         2.1989281251        7.2386915128       20.8654112522
  C         2.7836588862        7.5544996638       18.6018402991
  C         3.2675958822        9.7487112364       17.7001853718
  H         3.1653149358       11.3823414406       18.9366540147
  C         0.2803468880        9.8150642960       28.7220268048
  C        -2.1607523436        9.6950525049       27.8045775906
  C        -1.8770220752       12.2589353712       29.8972836085
  C        -1.8391092095       13.5879409884       30.0301280430
  H         7.2020256683       15.0157986424       21.7730349677
  H         6.2848614809       13.5290189063       22.4026789771
  C         5.8112796203       14.0479272867       20.3869138955
  S         2.2806715815        5.7850387394       20.1140792337
  N         2.6400796549        6.1590843938       18.6117885693
  C         3.1443373116        8.3590958138       17.4544619008
  H         3.6284568920       10.4771162856       16.9242881381
  H         0.6538447496        8.9912538074       28.1004148634
  H        -0.0523732647        9.3548714355       29.6370580719
  C         1.3965833225       10.6399247080       29.2422700448
  H        -1.9088153653        8.7917966874       27.2464394462
  H        -2.5524654442        9.3592729101       28.7604433025
  C        -3.2789562600       10.4244401670       27.0579602623
  H        -2.2440696286       11.5471969092       30.5318616580
  C        -2.1926091893       14.2925347459       31.3347605475
  H         5.3005377258       14.8703912582       19.8689215082
  H         4.9348873236       13.3213220514       20.5453293151
  C         6.9642648628       13.2547935269       19.6191731964
  C         3.2841924260        7.6544035549       16.1579952977
  H         1.8065937298       11.3085509631       28.4985226512
  H         0.9199321428       11.2760379785       30.0339733899
  C         2.6058251099        9.7877814010       29.5714001388
  H        -2.9224318460       10.7228462132       26.1067549085
  H        -3.4911672387       11.3034674743       27.5417780036
  C        -4.6548949569        9.7670407593       27.0652584765
  C        -2.1199792641       15.6881003126       31.4686845649
  C        -2.3652615157       13.4888628802       32.6222281769
  H         7.8777671878       13.7917856499       19.8000142746
  H         7.0056097880       12.2287933311       20.0724998480
  C         6.5792299883       13.2934234910       18.1209515770
  H         2.9444198459        6.6534061248       16.1919133048
  C         3.5721316177        8.1281517700       14.8203325599
  H         3.2002752438        9.3844570723       28.7362067348
  H         2.1549910626        8.9316645600       29.9707006415
  C         3.6067502233       10.3131455012       30.5246030960
  H        -4.7152299114        9.0683397831       26.2181786214
  H        -4.9545298601        9.2590531992       28.0022860982
  C        -5.8117509639       10.7836863881       26.8633364461
  N        -1.9097018573       16.6142877300       30.4343950056
  C        -2.3055427613       16.2827774265       32.6882086726
  C        -2.5329805103       14.1588159130       33.7786778885
  H        -2.2603432061       12.4356939851       32.5315318018
  H         7.2396269113       12.7037835129       17.4731557669
  H         5.6099220816       13.0042133314       17.9549044738
  H         6.6961557835       14.2889443521       17.6813443868
  S         3.9734651847        9.6864587819       14.3419963599
  C         3.7217230799        7.1323435108       13.7685051983
  H         3.7187214930       11.3801841400       30.3964452676
  H         3.2846546292       10.1002954975       31.5147717783
  C         4.8919062431        9.5679607963       30.3910805201
  H        -5.6132451748       11.4918334619       26.1057895124
  H        -6.0682949567       11.2980308048       27.8525779547
  C        -7.0288611455        9.9240395354       26.4966752415
  S        -1.8167295098       18.0868609014       31.0867193334
  N        -2.2914160455       17.6420486622       32.6009919224
  C        -2.5418962565       15.6414985026       33.9185984769
  H        -2.7049320475       13.5414634944       34.5747881070
  C         4.0954821352        9.0295324282       12.6916234594
  N         4.0770446138        7.6974252860       12.6207218241
  O         3.6717990235        5.9233346328       13.9187462002
  H         5.3317600247        9.9741578827       31.3050388426
  H         5.5101493843        9.9082158580       29.5756510121
  C         4.8124196029        8.0676301151       30.4359146663
  H        -6.7331110985        9.0285628006       25.9595897836
  H        -7.5424544088        9.6969783200       27.4263883373
  C        -7.9941478019       10.6117456496       25.4840834639
  C        -2.8590102307       16.4204489175       35.0404772063
  S         4.6374209267        9.9324264517       11.3120114293
  C         4.1108573803        7.0040155314       11.3300504755
  H         4.0536570915        7.8744878245       31.2281203017
  H         4.4011571290        7.6679438642       29.4959770310
  C         6.0641515149        7.3194004693       30.8789655190
  H        -7.8709798536       10.2415292636       24.4377298414
  H        -7.8093739485       11.7162214615       25.4400575751
  C        -9.5181401722       10.4950102749       25.8582483911
  H        -2.9267474312       17.4446844957       34.9319075869
  C        -3.3373829064       16.1138408067       36.2813814117
  H         4.8643987502        7.2777137952       10.6033662742
  H         4.0880926945        5.9010007381       11.5134098812
  C         2.7011648466        7.0351786135       10.7023678644
  H         5.8693222776        6.3945232672       31.4433832090
  H         6.7076664451        8.0131689350       31.4290214680
  C         6.8218235990        6.9085112466       29.5282869030
  H       -10.2034403985       10.5946261047       25.0379512232
  H        -9.7723101253        9.6016000987       26.2917237246
  C        -9.8701374641       11.5598807930       26.8513754617
  S        -3.8656294635       14.6418411404       36.8600884357
  C        -3.3891271404       17.2192286190       37.2755271512
  H         2.5088125267        6.2503602397        9.9596405416
  H         1.9642117987        7.1824701848       11.4574808743
  H         2.6467652223        7.8727528470       10.0539288173
  H         7.7317690778        6.2934250600       29.6275287276
  H         6.9737545528        7.8597956655       29.0142379276
  H         6.1632156996        6.3740643507       28.7783875490
  H        -9.4674350256       11.2547660978       27.8156918641
  H       -10.9526602040       11.5315428756       27.0711809890
  H        -9.4525226619       12.4882227031       26.4210983927
  C        -4.2018231575       15.4132570760       38.3390054934
  N        -3.8669230688       16.7149855965       38.4394494852
  O        -2.9231689788       18.4515530955       37.0626917171
  S        -4.4992600321       14.4776464985       39.8102967482
  C        -3.7890433222       17.4508730982       39.6541343370
  H        -3.8519475196       18.5270802703       39.5041538653
  H        -4.7009206845       17.2168978978       40.2257663910
  C        -2.5271600374       17.2437597258       40.4701358041
  H        -2.5079156281       18.0493785463       41.3029145285
  H        -2.5924430879       16.2893100137       41.0070997836
  H        -1.6234037404       17.2785002020       39.8722675611
