352
i=
  H         4.6562509383        1.4935443382       12.9238656854
  C         3.9591386059        2.3734957447       13.0035604574
  H         4.5720810001        3.2432954088       13.3095634105
  C         3.0836591083        2.5785953499       11.7399089628
  C         3.0436369730        2.0190955357       14.1697857696
  C         3.9527217825        2.7894496850       10.4687987425
  H         2.5308896875        3.4852649402       11.8054601342
  H         2.3691587418        1.7408529185       11.5621515583
  H         3.5943272476        2.2164597873       15.1160749176
  H         2.8839815987        0.9130376253       14.1125895894
  H         2.0618812509        2.5464095359       14.1924439963
  C         4.6602089518        1.5155661923       10.0494624848
  H         3.2478047782        3.2035521930        9.7862798434
  H         4.7107557396        3.5512991547       10.6448535393
  C         5.3122534386        1.6414027749        8.7321763519
  H         4.0123769232        0.6605227937       10.0010937686
  H         5.3219795393        1.2858665693       10.8060218242
  C         6.5408970763        2.5158515280        8.6638684789
  H         4.5923690774        1.9092721068        7.9503500921
  H         5.8444551358        0.7273228855        8.4751691407
  C         7.7690020797        1.8004663064        9.3593488318
  H         6.7349354226        2.8451548091        7.6536106349
  H         6.3046504846        3.4431035508        9.2177645997
  C         8.9428087910        2.6899112464        9.5275633335
  H         8.0695164151        1.0218927525        8.7516318481
  H         7.6091715316        1.4396100068       10.3900302716
  C         8.5930353739        4.0308733398       10.1686301738
  C         9.4023797393        3.3662468794        8.2553601782
  C        10.0799195767        2.0328265638       10.3401267261
  C         8.8984980309        5.1089242336        9.3730406818
  C         8.0571798466        4.4732173651       11.3646147847
  C         9.4797848475        4.7051851525        8.1843864247
  C         9.7696167285        2.7202286344        7.0608852931
  H         9.7026037798        1.5629616970       11.2959286110
  H        10.4361873169        1.1822352453        9.7010733134
  C        11.2207833585        2.9304833159       10.7238366348
  S         8.4502188853        6.6613584508        9.9770699986
  C         7.9835828592        5.8388561845       11.4851871356
  H         7.8095684414        3.6982986767       12.1003157857
  C         9.8811566359        5.3342063563        7.0190839875
  H         9.7229149839        1.6350557271        7.0520014745
  C        10.1383458083        3.2687082230        5.8862752728
  H        10.9536129057        3.6768682077       11.3792099658
  H        11.4739327227        3.5104336349        9.8196274022
  C        12.3523391794        2.1279526405       11.4330466056
  C         7.5124592503        6.5050963160       12.7666587830
  C        10.2517691147        4.6277620096        5.8645040952
  H         9.8872708621        6.4438236903        7.0730425684
  C        10.6479244017        2.7584822524        4.6875009640
  H        13.2676885533        2.8099960483       11.4978917651
  H        12.5209921124        1.2650417437       10.7920227280
  C        12.0053717131        1.7434455051       12.9018585044
  C         7.5476448568        7.9579318794       13.0316104111
  C         7.1612704200        5.7235193541       13.9676343047
  C        10.7344095290        5.3020598564        4.5741813240
  C        10.9428732332        3.8710990217        3.8871567204
  S        10.9017011381        1.2523974127        3.9163560272
  H        10.9854591254        1.4040149289       12.9659134829
  H        12.6255453038        0.8340055335       12.9910396916
  C        12.2993862888        2.8470255134       13.9504236061
  N         7.8291912760        8.9814535981       12.1383511969
  C         7.4083057605        8.5098245956       14.2576921601
  C         6.8203844174        6.3156276911       15.1826284385
  H         7.0190592629        4.6668200435       13.8861666309
  C        12.0152926126        6.1638132202        4.8293125383
  C         9.6699886755        6.1347414670        3.7911819110
  C        11.3537489826        3.4873596945        2.5839988944
  C        11.4818155586        2.1132170970        2.5049634378
  H        11.9887247528        3.8331446241       13.6825336238
  H        13.3105612693        2.8930866737       14.1274446086
  C        11.6742599830        2.5791995676       15.2842130766
  S         7.9153317117       10.4404758417       12.8269919628
  N         7.7029279019        9.8470409777       14.3189037842
  C         7.0639894671        7.7505402133       15.4006054407
  H         6.5248469940        5.7075373711       15.9883386776
  H        11.8459078380        7.0561633468        5.4998122387
  H        12.3243352986        6.5850045539        3.8649193534
  C        13.1250673530        5.3227215484        5.3965104381
  H         9.1896733069        6.5696550514        4.6362857049
  H        10.1175983477        6.8544411557        3.0766376765
  C         8.5998481307        5.2551193887        3.2035128684
  H        11.6545096998        4.2878739367        1.8944156976
  C        11.9127335864        1.2878391119        1.3245524968
  H        11.7917273549        3.4458002853       15.9024452993
  H        10.6050791626        2.4414617082       15.1017194089
  C        12.2418473493        1.3656969143       16.0226756195
  C         6.8623613848        8.4189176840       16.5957582323
  H        12.8282859005        4.8267718141        6.2806534904
  H        13.2523446488        4.6526261158        4.5890791401
  C        14.4691498527        6.0387693123        5.6140820913
  H         8.1313697060        4.6725688840        4.0013108692
  H         8.9760370467        4.5142318503        2.4998864140
  C         7.5453432344        6.0113523751        2.3847742185
  C        12.0448341392       -0.1373271033        1.1503597625
  C        11.9866972689        2.0599987871        0.0743753275
  H        13.3119334769        1.3788827363       15.8848506588
  H        11.8427897517        0.4074513883       15.4975798568
  C        12.1459684634        1.4364891887       17.5520186714
  H         6.9731894995        9.4948656041       16.5174537437
  C         6.6020041886        7.9599679924       17.8340937774
  H        14.5966491593        6.7940445535        6.2975600849
  H        14.6916087378        6.5285844067        4.7382779092
  C        15.6454262023        5.0492115367        5.9293687586
  H         7.5489353253        7.0698503872        2.6894191652
  H         7.7862758990        6.0170671004        1.3519010968
  C         6.1280771518        5.4376345614        2.5693280040
  N        11.8882253210       -1.0558074975        2.2154229407
  C        12.3749682591       -0.7163827200        0.0011148115
  C        12.3488765388        1.5005411552       -1.1232603160
  H        11.6856829771        3.1045741639        0.0807940013
  H        11.2232359325        1.8664635509       17.8863276340
  H        12.8543402834        2.2169254114       17.8372092417
  H        12.2969941445        0.5559264928       18.1462170521
  S         6.1202742810        6.4422066274       18.2554695307
  C         6.5587433219        8.9597879127       18.8974813258
  H        15.3638909150        4.4953365186        6.8684198697
  H        15.7947288021        4.2742535041        5.1224926746
  C        16.9726812610        5.8804622413        5.9659375970
  H         6.0430538958        4.7831377228        3.4328845543
  H         5.9282069076        4.9495625361        1.6840426289
  C         5.1030245086        6.5641482256        2.6655276545
  S        11.8824203108       -2.5098973061        1.5717733585
  N        12.3511216053       -2.0860696506        0.1307901920
  C        12.6125342480        0.0454045548       -1.2132517926
  H        12.1687766045        1.9898244202       -2.0336255125
  C         5.8274942317        7.0947739995       19.8596246349
  N         6.0910292100        8.4040427686       20.0475509008
  O         6.8923933598       10.1233065406       18.7048105769
  H        17.3376302356        6.2093687701        4.9640735345
  H        16.6588444974        6.7686686357        6.4676845615
  C        18.0153397455        5.2184289032        6.8510101193
  H         4.1515173541        6.1215283842        2.9060199027
  H         5.3034235434        7.1547105286        3.5366110256
  C         5.1805447160        7.6300188041        1.5097140729
  C        12.7508770043       -0.7228608415       -2.3910170215
  S         5.4616079197        6.1596780275       21.3294302449
  C         6.2102105999        9.0864057482       21.3438232866
  H        17.6755989563        5.2684048528        7.9412108396
  H        18.1374901581        4.1623264984        6.5670833058
  C        19.2297365088        6.1825291886        6.7968346865
  H         5.1679401807        7.0256328484        0.5483475415
  H         6.1356726554        8.1624881964        1.4567093458
  C         4.0544544136        8.6742981787        1.4660878828
  H        12.6711634176       -1.8071408246       -2.3154089983
  C        13.1547256387       -0.3268757916       -3.6183957663
  H         5.5546245377        8.6524448677       22.0997846839
  H         5.8980110668       10.1012674030       21.1229402903
  C         7.6343625349        9.0167979885       21.8325826936
  H        19.6744174380        6.1164657392        7.7446859437
  H        18.8588968067        7.1687272726        6.6839068244
  C        20.2511621071        5.8363989888        5.6967406793
  H         4.1212239876        9.3981331461        0.6279836154
  H         3.0711749402        8.2268273923        1.3672582894
  C         3.9050833087        9.4842577750        2.7012417191
  S        13.5231604841        1.3349104842       -4.1375462101
  C        13.2681167607       -1.3305715656       -4.6796647922
  H         7.9255978583        7.9918687150       21.6706334488
  H         7.6026345197        9.1871117212       22.9316095853
  H         8.1138068272        9.9632137860       21.3505297950
  H        19.8639485376        5.2679770419        4.8062017449
  H        20.5989041532        6.7969141791        5.2837664734
  H        21.1636483365        5.3445980278        6.0310828986
  H         3.8625672176        8.9482510585        3.6973943377
  H         4.8298333333       10.0603954197        2.7561302656
  H         3.0440582334       10.2004927706        2.7169213556
  C        13.9644519448        0.5876687248       -5.6894818301
  N        13.8133333014       -0.7698535408       -5.7692088810
  O        12.8507815869       -2.5160514283       -4.6772273340
  S        14.6075614184        1.4435442813       -7.0206322871
  C        14.2590671931       -1.7074761171       -6.8192546305
  H        14.4895400408       -2.7120985027       -6.4461615483
  H        15.1807896982       -1.3147578843       -7.2548327304
  C        13.2238895101       -1.8793599441       -7.8810726824
  H        13.4843358099       -2.6431865895       -8.6432387501
  H        12.9956470657       -1.0377116002       -8.4622285283
  H        12.2606712266       -2.1721277113       -7.3901451181
  H        -3.1419649223       14.7895077233       16.1804199439
  C        -2.9281677688       13.7501777485       16.2278995282
  H        -3.9083887131       13.3034669242       16.5286836448
  C        -1.8567592133       13.4500526975       17.3145033689
  C        -2.5471335880       13.0747688695       14.9090412772
  C        -2.1447120340       13.9809790936       18.6708334114
  H        -1.5486293310       12.4109813686       17.3257942953
  H        -0.9051564656       13.8564821635       16.9112121819
  H        -1.9617785610       13.6520157848       14.2322166170
  H        -1.9507963967       12.1701425173       15.0843265175
  H        -3.4777414545       12.7546366316       14.4134641330
  C        -1.3070271765       13.4589717679       19.8484988918
  H        -3.1694663170       13.7164081942       18.9468454924
  H        -2.1165819012       15.0313650338       18.5882970978
  C        -2.0748749988       13.6763616980       21.2099005460
  H        -1.0784653087       12.4143516446       19.6826547526
  H        -0.3091732760       13.9075176640       19.8381109449
  C        -1.3386854810       13.0777615114       22.3654187579
  H        -3.0748304563       13.2439676605       21.1201414892
  H        -2.0265749946       14.6963358981       21.3249442988
  C        -0.1204048697       13.9561757938       22.7652890659
  H        -1.9994987986       13.0324124442       23.2131786619
  H        -1.0532637674       12.0988358301       22.1388401418
  C         1.1449103513       13.2771259536       23.4676766922
  H         0.2541910974       14.4182057399       21.8701410846
  H        -0.3847965084       14.9085896242       23.3117517872
  C         1.5315692546       11.9142412708       22.7762030433
  C         0.7365050710       12.5559756575       24.6788715769
  C         2.4080564155       14.2291216992       23.6481146307
  C         1.4050727984       10.7990910754       23.6046598222
  C         1.9431670477       11.4741866689       21.5047663391
  C         0.9642646358       11.2336128798       24.8182886373
  C         0.1063964067       13.1531764252       25.7544278206
  H         2.5494121707       14.7103941573       22.7023618102
  H         2.2279759522       14.8924145842       24.4720831561
  C         3.6787407025       13.4070995644       23.9660403165
  S         1.8703748763        9.2645704948       22.8586012178
  C         2.1890048695       10.0908591840       21.4416597343
  H         1.9043510801       12.2199622369       20.7005122111
  C         0.5706943672       10.6325506752       25.9188007838
  H         0.0595864674       14.2128676288       25.6957262792
  C        -0.1383167237       12.5710610799       26.9326986125
  H         4.0588265848       12.7746742204       23.1224553087
  H         3.3988699869       12.7447913867       24.8017310094
  C         4.9677150351       14.1777657034       24.4228803586
  C         2.5895131708        9.4668399758       20.1199337859
  C        -0.0109242971       11.2322812957       27.0367043435
  H         0.6404128452        9.5789396031       25.9700887553
  C        -0.5183039220       12.9779321801       28.1945876245
  H         5.5863987433       13.4028883127       24.8207707248
  H         4.7096847934       14.8675803001       25.2222870091
  C         5.7069815648       14.9226733297       23.3617048691
  C         2.4590251904        8.0686902989       19.7649280988
  C         3.0313376487       10.3047772039       19.0026177050
  C        -0.4259458575       10.5688671648       28.2603062019
  C        -0.8098488904       11.9361953248       28.9821426010
  S        -0.6802238850       14.5501228478       28.9195661265
  H         6.1615932395       15.8568437075       23.7764436702
  H         5.0045117418       15.3401176899       22.6886114239
  C         6.7777802357       14.0840328543       22.6551650956
  N         2.0372218097        7.1554845167       20.6601636653
  C         2.7617892760        7.5647978760       18.5240007538
  C         3.3689727210        9.8405538349       17.7082118175
  H         3.1636137693       11.3477954627       19.1810482868
  C         0.7743484332        9.8544052538       28.8488342495
  C        -1.7563050939        9.6927014538       28.2060337131
  C        -1.2405433420       12.3785438890       30.2143999266
  C        -1.3115752813       13.7411661599       30.3054687335
  H         7.6644583658       14.7400261765       22.6262351905
  H         6.9676245431       13.2205250763       23.2470247847
  C         6.4113353298       13.7145713360       21.1756437085
  S         1.9626904184        5.7600460444       19.8140575580
  N         2.5318502639        6.1968842217       18.3744189803
  C         3.2047519288        8.3626532864       17.3988087017
  H         3.7823143253       10.5807221948       16.9831075187
  H         1.0146498424        9.0331091436       28.2463838954
  H         0.4422905578        9.3825538214       29.7685584047
  C         1.9804019149       10.6539264268       29.0986895808
  H        -1.5624515728        8.9316312922       27.4288026931
  H        -1.9893986456        9.1566627052       29.1557580193
  C        -3.0308158702       10.4674702457       27.6311164892
  H        -1.6847088571       11.7091773873       30.9550538478
  C        -1.6325511415       14.4904628470       31.5685187314
  H         5.8284713933       14.5643169108       20.9396523868
  H         5.6460558031       13.0011124738       20.9761909348
  C         7.6394613127       13.5825473488       20.2305885326
  C         3.3345699422        7.7604755768       16.1325406876
  H         2.3720227982       10.8940064113       28.0794857466
  H         1.7482044852       11.5414304233       29.7308203550
  C         3.0521713006        9.8785861284       29.8666289016
  H        -2.7826972743       11.2131107087       26.8396923568
  H        -3.3573917151       11.0172291533       28.4635917036
  C        -4.1379520886        9.4931315644       27.3191509248
  C        -1.7281502798       15.9135395670       31.7216703311
  C        -1.6828455895       13.6866766492       32.8536250909
  H         8.3341060454       14.3645668577       20.2799625511
  H         8.1773001904       12.6616556031       20.3903218873
  C         7.1351979259       13.6060378487       18.7817799376
  H         3.1469862819        6.7362557890       16.1920948955
  C         3.6859861265        8.0980949073       14.8483428222
  H         3.5136436208        9.1712307443       29.2242887471
  H         2.5487531422        9.3705326800       30.6618930560
  C         4.1824132085       10.7683242806       30.3221043844
  H        -3.9812772085        8.9209267522       26.3935581824
  H        -4.3074131496        8.6796683892       28.0543897600
  C        -5.3817065682       10.3594447497       27.0656607707
  N        -1.6719772715       16.8855320801       30.7103705976
  C        -1.9279021989       16.5366049920       32.9371731203
  C        -2.0058106162       14.3385446984       34.0945402170
  H        -1.5557465840       12.5874455660       32.8960747326
  H         6.0058797309       13.5002021104       18.7714387162
  H         7.5540456495       14.5182624768       18.2525454373
  H         7.5709328496       12.7236374354       18.3167897322
  S         4.2264535433        9.7236353067       14.4226862828
  C         3.6897794446        7.1086425682       13.7811323352
  H         4.4438999105       11.4132239174       29.5157146567
  H         3.8994871467       11.4466843339       31.0753133217
  C         5.3953056484       10.0866414341       30.9120633807
  H        -5.0836613593       11.2656030191       26.6567600225
  H        -5.8665212167       10.6021722957       28.0138015515
  C        -6.3488973207        9.6593263254       26.1915678990
  S        -1.6489619728       18.3059226872       31.4112645147
  N        -1.9269498302       17.9198705810       32.9025532046
  C        -2.2070308467       15.8064935247       34.0695687670
  H        -2.0105303997       13.6774748407       34.9829333215
  C         4.2900454194        9.0964072241       12.7555100271
  N         4.2513671552        7.7413703544       12.7166036765
  O         3.5112344075        5.8999161449       13.9247995721
  H         5.9393146700       10.7048831783       31.5742980432
  H         6.0244913239       10.0453246469       29.9790648172
  C         5.0701901383        8.7064325212       31.5022483986
  H        -5.8879124157        9.2795368097       25.1914595316
  H        -6.6583174907        8.7486816754       26.7256113046
  C        -7.4678967646       10.6107075150       25.8053833852
  C        -2.5899925993       16.5063816543       35.2775563796
  S         4.7232105504       10.0702792213       11.3451918821
  C         4.3866112520        6.9064344813       11.4493850226
  H         4.2898136872        8.8552834445       32.2579699970
  H         4.5167057778        8.1354539386       30.7382882850
  C         6.3069002550        7.9729996741       31.9951939598
  H        -7.1759011811       11.1713536421       24.8979228843
  H        -7.7222093726       11.3063346492       26.5430094762
  C        -8.7117336222        9.7595944839       25.4270247151
  H        -2.1336850822       17.4750455515       35.2726433994
  C        -3.2085005560       16.0799174139       36.4343128418
  H         5.0302285132        7.4847728789       10.8076813694
  H         4.8487741062        5.9316247860       11.5632318373
  C         3.0096227548        6.8672317315       10.7672809972
  H         6.6159795876        8.3083144993       32.9695255175
  H         7.0938318320        8.1350200169       31.2061833613
  C         6.1487743759        6.4489637502       32.2048882786
  H        -9.2002044912       10.2603360982       24.5583931155
  H        -8.5412787543        8.7138360376       25.2396055524
  C        -9.7411447618        9.9227425574       26.5278428077
  S        -3.7199535768       14.4813279704       36.8870537604
  C        -3.2636585713       17.0653007411       37.5597344118
  H         3.0364409602        6.2583245942        9.8257785430
  H         2.2753431023        6.4118082479       11.4606910560
  H         2.6278380515        7.8524842773       10.5658060905
  H         7.0607861579        5.9164388938       32.0717562098
  H         5.5221050241        5.9733654593       31.5011004071
  H         5.7194083238        6.1060634640       33.1839240624
  H        -9.2594335538       10.3999933800       27.3501534529
  H       -10.0778050196        8.9895215824       26.9326340890
  H       -10.5415162033       10.6463308607       26.2809376854
  C        -3.8897885348       15.1084355930       38.5111963516
  N        -3.7865501536       16.4382060221       38.6516613923
  O        -3.0256043761       18.2753710634       37.3683696350
  S        -4.0648091688       14.2267758291       40.0397462508
  C        -3.8785493769       17.0876781154       39.8871399549
  H        -4.0348924239       18.1526116939       39.7616248979
  H        -4.8111921514       16.7146512550       40.4067620078
  C        -2.6610121191       17.0566898868       40.8137556595
  H        -2.7825511911       16.5173691935       41.7427637026
  H        -1.7425074895       16.6602336127       40.3359214460
  H        -2.4551676551       18.0556310147       41.1246815384
