352
i=
  H         2.5662225679        2.9699397106       13.3384890769
  C         2.8784066490        1.9336292518       12.8871212005
  H         2.3518825162        1.1340717168       13.4403607880
  C         2.4883918445        1.9568217467       11.4100916279
  C         4.3315569220        1.6671454296       13.2454741359
  C         3.5426274801        2.4016628696       10.3342676225
  H         1.6864718382        2.7002252198       11.4378589103
  H         2.0862347959        1.0456172983       11.0980371540
  H         4.5669839441        0.6369963722       13.2013937879
  H         4.5147303451        1.9431501010       14.3217487901
  H         5.0217542757        2.2631997065       12.6686643091
  C         4.3070316933        1.2298317695        9.6077702410
  H         2.9804869893        2.9791241281        9.6461292562
  H         4.1828118785        3.0343831498       10.8538925981
  C         5.0595639706        1.7174370500        8.4062675761
  H         3.7352313148        0.3855463335        9.2916670842
  H         5.0511387806        0.6889820689       10.2157021631
  C         6.3401297592        2.6071623624        8.5749445425
  H         4.3449312045        2.2161971765        7.7520572598
  H         5.3198911373        0.8369562056        7.8225173756
  C         7.4864291651        1.7492816144        9.0741047437
  H         6.6540813329        3.0375573314        7.5887785268
  H         6.1329717575        3.4842384292        9.2306666326
  C         8.8584177980        2.5448749746        9.3862750289
  H         7.7701848407        1.0101407656        8.3289528633
  H         7.1687028298        1.2118803550        9.9935423203
  C         8.4763438804        3.8551415767       10.0281353843
  C         9.2657980541        3.2451197481        8.1204569910
  C         9.9511919981        1.7657050742       10.1824553182
  C         8.5505460179        4.9289605577        9.1750594359
  C         8.2091502892        4.2133325278       11.3094886430
  C         9.0398076509        4.5505905222        7.9272584095
  C         9.7190048441        2.6728092941        6.9457882086
  H         9.4214045882        1.1815871098       10.9427180584
  H        10.2504682977        0.9000235264        9.5461186940
  C        11.2022715646        2.5172203956       10.6465396406
  S         7.8897349635        6.4301934568        9.8425367689
  C         7.7755919622        5.5522431034       11.3763503863
  H         8.2363375793        3.4498081036       12.0884519651
  C         9.2936695658        5.2363173506        6.7906788087
  H         9.8269687546        1.5876341415        6.9904278081
  C         9.9971428448        3.3735689965        5.7908779301
  H        10.8924642858        3.4310292558       11.1223204740
  H        11.8592551777        2.9841635990        9.8579241024
  C        12.1516158548        1.8702326049       11.5628325362
  C         7.2869503279        6.3104295852       12.5971345723
  C         9.8191453766        4.7113193761        5.6369168093
  H         9.0940755931        6.3288150573        6.8252394019
  C        10.4999827250        3.0427417573        4.5632453953
  H        13.0259659809        2.4818956686       11.5290042961
  H        12.5179138170        0.9659166777       11.0381203896
  C        11.5886818809        1.5832247629       12.9903012945
  C         7.2670891655        7.7000262459       12.7867924963
  C         6.9678602928        5.4535668172       13.7986614717
  C        10.1601542913        5.4064952339        4.3839595748
  C        10.6172715198        4.1479136671        3.7393336094
  S        10.8435120358        1.5584052795        3.8126907994
  H        10.9130589898        2.4232689195       13.1717132427
  H        11.0402888600        0.6661410093       12.9658244580
  C        12.7952172070        1.5983909139       13.9680597208
  N         7.5470033824        8.6111541023       11.7462998659
  C         6.9853025445        8.3085875669       14.0022856004
  C         6.6621934661        6.0629677067       14.9744394685
  H         6.9878739122        4.3883579921       13.6439087682
  C        11.3553083515        6.4344867162        4.6383878092
  C         8.9998396493        5.9607771588        3.5612766728
  C        11.1087527731        3.8023970565        2.4273367448
  C        11.1827389791        2.4784280554        2.3140615033
  H        13.5818059365        2.3838752377       13.8262460342
  H        13.3414549628        0.6665582135       13.8813284671
  C        12.2801041339        1.5232108400       15.3682447919
  S         7.5429931535       10.0960603383       12.4008165351
  N         7.1445449732        9.7248497412       13.9337388993
  C         6.7407338824        7.5729063491       15.1795874146
  H         6.4346537664        5.5039642627       15.8451095664
  H        11.2001518001        7.1433627739        5.4999467897
  H        11.4802247024        7.0528782704        3.7363971974
  C        12.6780664014        5.6916532264        4.9340695287
  H         8.7552971622        6.8588724089        4.0855385688
  H         9.2456257491        6.3510841962        2.5776411393
  C         7.8291798083        5.0666533478        3.4422182881
  H        11.2360622823        4.5715216153        1.6495493768
  C        11.6739489754        1.7061460093        1.1331834328
  H        11.3268124263        2.0347610101       15.5467651307
  H        12.0465971954        0.4652078891       15.6067951980
  C        13.2619136296        1.9078918396       16.4925156472
  C         6.4802624736        8.2699981912       16.3914759892
  H        12.5478805986        4.8905175746        5.6789236618
  H        13.1629984768        5.3592767958        4.0299064635
  C        13.7380927070        6.5242865192        5.6167549384
  H         7.5577499613        4.7160983103        4.4706999554
  H         8.0295824564        4.1735866002        2.9004740499
  C         6.6116801396        5.7809987803        2.8457406064
  C        11.7136830041        0.2935338577        0.9205778521
  C        12.0876913701        2.5292603967        0.0004830158
  H        13.8723532836        2.7619880480       16.0785388628
  H        14.1552868388        1.2182726227       16.5945442644
  C        12.6687012333        2.2992978457       17.8648125465
  H         6.5615030865        9.3810041948       16.3150821031
  C         6.1795805961        7.8206048547       17.6634002382
  H        13.2162204606        7.1097947875        6.3970280242
  H        14.2477716938        7.1842058004        4.9380398692
  C        14.8157549466        5.5755132984        6.2522496601
  H         5.7028893110        5.2083563588        3.1614628880
  H         6.4043365085        6.6927277858        3.4869283921
  C         6.7721268560        6.1739462701        1.3653886797
  N        11.4024659023       -0.6452543939        1.9269011356
  C        11.9536586907       -0.3031610684       -0.2831605192
  C        12.5134319532        1.8691366479       -1.1866052214
  H        12.2466877050        3.5917010219        0.1425190726
  H        13.4380524161        2.6868488338       18.4123758930
  H        12.4462554360        1.3147071282       18.2315573250
  H        11.8479005239        2.9534675231       17.7495484366
  S         6.0716653593        6.1732782424       18.2298847454
  C         6.2541517987        8.7987468037       18.7817284490
  H        14.2901184379        4.9417644659        6.9111535291
  H        15.2492454069        5.0499576375        5.4434955216
  C        15.8342512660        6.1815819111        7.2540485903
  H         7.2307475383        5.3333435028        0.7682296992
  H         7.4230240196        7.0276989237        1.4052274353
  C         5.4525185487        6.4891755678        0.7837786454
  S        11.6733771329       -2.0926115488        1.3727210618
  N        11.8764667717       -1.6800262710       -0.2067402031
  C        12.3269670598        0.3974592555       -1.4352821544
  H        12.7855127984        2.3893519201       -2.0572376659
  C         5.9499059518        6.9146166874       19.8425895455
  N         5.9550947420        8.2402665803       19.9847792731
  O         6.4585492238        9.9898174490       18.5753290837
  H        16.2783727967        7.0412205551        6.6741589426
  H        15.4257422627        6.6886738547        8.1120224726
  C        16.8625191879        5.0494928563        7.5803613714
  H         5.6932035204        6.7123238449       -0.2358471907
  H         4.7808936558        5.6661185755        0.7236586529
  C         4.7543969898        7.6148526615        1.5265702008
  C        12.7069089429       -0.4082833429       -2.5976095415
  S         5.4030941549        6.0085680708       21.2272191100
  C         5.9353493605        9.0047998429       21.3009473962
  H        16.5607580328        4.3918306840        8.4297642570
  H        17.1718657059        4.4778860728        6.7495100084
  C        18.1440714482        5.7345723904        8.0407823384
  H         5.4230020477        8.2137777035        2.0412445626
  H         4.0126477161        7.1612079019        2.1734557062
  C         4.2061792871        8.6321916636        0.5175993770
  H        12.2987687673       -1.4331474574       -2.6038669970
  C        13.2972725705       -0.0647317556       -3.8136760095
  H         5.1828499247        8.5340374288       21.9320036977
  H         5.5364651732       10.0083725852       21.1752373235
  C         7.2473308777        8.9183432054       21.9538769175
  H        18.5283299196        5.3665260770        9.0114605292
  H        17.9187532817        6.7852081978        8.3099800025
  C        19.1432370581        5.6868026078        6.9292863654
  H         4.9377864630        9.2334325265        0.1406031885
  H         3.8363470251        7.9917970542       -0.2947509683
  C         3.0262801777        9.4870994223        1.1111418838
  S        13.8413951805        1.4855434612       -4.2683201915
  C        13.5282952101       -1.0892196417       -4.8340149979
  H         7.9790379842        8.3206172322       21.3201074122
  H         7.0494028167        8.1660455776       22.7910843173
  H         7.6129386420        9.8277764540       22.3398525909
  H        18.7416193159        6.1417057960        5.9805389924
  H        20.0908984119        6.1947500915        7.1362712515
  H        19.3475965925        4.6360493056        6.7920460597
  H         3.3337018729       10.2619582474        1.7578152368
  H         2.5917876043        9.9785871790        0.1931752098
  H         2.2421264391        8.8061102589        1.5130006211
  C        14.4073443965        0.7606690735       -5.8174052610
  N        14.1293801440       -0.5400519494       -5.9331259927
  O        13.0375517631       -2.2224048338       -4.7866761505
  S        15.2876167067        1.6428627426       -7.1738758180
  C        14.3086815869       -1.2386808661       -7.1816135538
  H        14.2656297404       -2.3183504224       -7.0605719977
  H        15.2319274071       -0.8765076216       -7.6652133013
  C        13.1090968493       -0.9863381160       -8.0328361048
  H        13.3047338426       -0.0312541981       -8.5722641233
  H        12.1263365360       -0.9320502589       -7.5741960223
  H        13.0788031777       -1.8149358348       -8.7594886595
  H        -1.2256589078       13.1422949694       16.6810354184
  C        -2.0660301451       13.7310156768       16.1927605464
  H        -1.5288524300       14.3600399336       15.5358345156
  C        -2.9470997941       14.4021338877       17.3109296417
  C        -2.8483095545       12.7603094177       15.3903930537
  C        -3.3875982698       13.4380308167       18.4932652972
  H        -2.4779624991       15.3325298848       17.6939002939
  H        -3.8293880683       14.6742274289       16.7550247600
  H        -3.8869054953       12.6613180967       15.5976149523
  H        -2.6724893759       12.7735528624       14.2913629425
  H        -2.4658407888       11.7353857479       15.6019510815
  C        -2.4396462613       13.6037365564       19.6969203411
  H        -3.4413741255       12.3745437788       18.1783598610
  H        -4.4624805139       13.6552088421       18.6694334146
  C        -2.8913503633       12.8042844410       20.8897777164
  H        -1.4878879691       13.1804380399       19.3806091450
  H        -2.3035441937       14.6597280349       19.8368398037
  C        -1.6940479539       12.3753518529       21.7662292961
  H        -3.6129933215       12.0159584754       20.6615897106
  H        -3.4727837207       13.4532828139       21.5349875038
  C        -0.5721166454       13.3689694803       22.0355309073
  H        -2.1794058024       12.1097562075       22.7314816723
  H        -1.2715328791       11.5254393008       21.2437363503
  C         0.5855527717       12.8096321796       22.8960525107
  H        -0.1999666250       13.7925968321       21.1364923766
  H        -0.9227748722       14.3110119297       22.5483584374
  C         1.0927799826       11.5024440698       22.2928053298
  C         0.1206695487       12.1393743216       24.1992941266
  C         1.6450242531       13.9391889976       23.1903045868
  C         0.8125755903       10.4046160573       23.1062512959
  C         1.6712948270       11.1329447973       21.0744124918
  C         0.2565606068       10.8379778343       24.3227933091
  C        -0.3667704263       12.7121577481       25.3943809384
  H         1.7541627321       14.3916408095       22.2317845786
  H         1.2083328583       14.6616538966       23.8964131341
  C         2.9222217670       13.3398986996       23.7712773022
  S         1.3553409870        8.8802020279       22.4709436740
  C         1.8249860281        9.7536841856       21.0503928001
  H         1.8034689259       11.9037909078       20.3142468643
  C        -0.0679236053       10.1531804295       25.4912913971
  H        -0.4760646866       13.7919906713       25.4626566744
  C        -0.7028890119       12.0371648761       26.5417060929
  H         3.3872184776       12.5162477318       23.2305582401
  H         2.5980330879       12.8383579822       24.6600910543
  C         4.0049581603       14.4539012369       24.1335526791
  C         2.2755886152        9.0021173640       19.8231510259
  C        -0.5298839695       10.7148469739       26.6710681604
  H         0.0408975136        9.0422855832       25.4830628921
  C        -1.0204035497       12.4515912122       27.8384914832
  H         4.7755723880       13.8351502765       24.5919641774
  H         3.6493955100       15.1126186410       24.9199527320
  C         4.4801904674       15.1262128166       22.9046083565
  C         2.3832914102        7.5935474728       19.7042544638
  C         2.6140068070        9.8025076188       18.5845478163
  C        -0.8990472487       10.0312001422       28.0051417455
  C        -1.1776447578       11.3715855202       28.6760395224
  S        -1.1953598581       13.9489166455       28.6385834103
  H         5.1769490860       15.9740602289       23.0764573537
  H         3.5621868669       15.4626509963       22.4412797287
  C         5.2592581776       14.1756267681       21.9694649068
  N         1.9258086400        6.6362360125       20.5713049015
  C         2.6208919017        6.9910088303       18.4378511392
  C         2.9954549006        9.1480327587       17.3661131447
  H         2.6039128268       10.9352362826       18.5919445381
  C         0.2055545553        9.2353462289       28.6964527186
  C        -2.1851872931        9.1721035582       28.0382385675
  C        -1.5084949626       11.8175520676       30.0069540931
  C        -1.5350343230       13.1235314902       30.1404503731
  H         6.0417042231       14.9381740959       21.6733847982
  H         5.7521556908       13.2717951239       22.3725872409
  C         4.3592605538       13.7162310324       20.8317432301
  S         2.0097805608        5.1392057992       19.9647653693
  N         2.4093920292        5.6055958060       18.4144005106
  C         2.9760713960        7.6670756903       17.2581113554
  H         3.1275302946        9.8129236696       16.4825480039
  H         0.5028570030        8.5057425770       27.8929674476
  H        -0.1982799165        8.7393860877       29.6077617848
  C         1.3375911236       10.1017177615       29.1569767752
  H        -2.0178334806        8.2823969429       27.4396543176
  H        -2.4947411841        8.7640449764       29.0323794717
  C        -3.5155291516        9.9678334626       27.5966321017
  H        -1.5292884849       11.1132180130       30.8159906040
  C        -1.8463057888       13.8333600948       31.4068218642
  H         4.2200393804       14.6756497411       20.2761488003
  H         3.3010951713       13.4739129876       20.9872870805
  C         5.0476791956       12.7742940361       19.8462529190
  C         3.2469428101        7.0418014303       16.0658078866
  H         1.5749556929       10.8458336173       28.4077816501
  H         1.0650329417       10.6809272684       30.0280294281
  C         2.5612733295        9.2434656071       29.5142238399
  H        -3.3446175011       10.6040968995       26.6725923287
  H        -3.7774801682       10.6350184161       28.4457653348
  C        -4.7657883277        9.0120841578       27.5482286165
  C        -1.8566573340       15.2584228274       31.5979289866
  C        -2.3168783737       13.0181157086       32.5564220067
  H         4.8825734288       11.8383724614       20.2964908870
  H         4.3404153942       12.7786955484       18.9681878231
  C         6.5053624513       13.0309528513       19.4852875989
  H         3.5522351315        5.9943659097       16.2510343803
  C         3.4710043986        7.4350585400       14.7382379713
  H         2.7849490398        8.6522698842       28.7001554638
  H         2.3362726613        8.5405201352       30.2972383428
  C         3.7559616123       10.0643920363       29.9156899228
  H        -4.6011387372        8.1314405134       26.9045894554
  H        -4.8629942804        8.5629662493       28.5330682013
  C        -6.1089793599        9.6435315240       27.1336653904
  N        -1.4826970879       16.2248973796       30.6923276895
  C        -2.1200028477       15.7712902789       32.8491934209
  C        -2.6635035557       13.5296121010       33.8000889016
  H        -2.4874608128       11.9948065006       32.4274918559
  H         6.5465268592       12.4973069934       18.4789696210
  H         6.6695913862       14.0650608483       19.2786715441
  H         7.2125297587       12.5398651649       20.0785150256
  S         3.6959327349        8.9788401592       14.1593263903
  C         3.5556676045        6.4089692007       13.6782180895
  H         3.7480297235       10.7859857754       29.0953105994
  H         3.4735133080       10.5713751583       30.8303915953
  C         5.0330985842        9.2217132364       29.8587669592
  H        -6.1757749797       10.5685990953       27.6645434892
  H        -6.8578555321        8.9256390039       27.4674316553
  C        -6.2023112479       10.0148890909       25.6905931898
  S        -1.4337347388       17.6854580865       31.4338976963
  N        -1.9091113680       17.1555574243       32.9006900862
  C        -2.4580450270       14.9727116974       34.0216871349
  H        -3.0884688909       12.9548671471       34.6073716707
  C         3.6979709243        8.3334911679       12.4788574549
  N         3.8471253862        6.9462739828       12.4841296543
  O         3.7226351328        5.2267064954       14.0012193160
  H         5.8139113731        9.9279961177       29.5206310860
  H         4.9643694067        8.4511559655       29.1278548888
  C         5.4594117812        8.4817557297       31.1261790347
  H        -5.2979820295       10.4498322580       25.3339109234
  H        -6.1535996780        9.0534437804       25.1600643708
  C        -7.4953568949       10.7149024022       25.2521006441
  C        -2.7109687297       15.5716264789       35.2586998409
  S         4.2069509391        9.1727633927       11.0401764395
  C         3.9103020955        6.1884089925       11.2013481397
  H         6.1577246850        9.0496185207       31.7746889283
  H         4.5690118110        8.4129506360       31.7954004817
  C         5.9026614513        7.0404817769       30.8305473319
  H        -7.1694865207       11.2071817539       24.3169494687
  H        -7.7822268052       11.4484720829       25.9841271891
  C        -8.5500252669        9.7857022531       24.7726858685
  H        -2.2189915632       16.4973563617       35.3372660326
  C        -3.1800156668       15.1393267493       36.4398631589
  H         4.4690882287        6.5978018179       10.3545291447
  H         4.5130998913        5.3289662184       11.2933192155
  C         2.4292927845        6.0958845002       10.6583489351
  H         6.5959146721        6.8506959331       30.0036707558
  H         4.9849794992        6.5020437714       30.4926377250
  C         6.2357366718        6.4003945707       32.1802118212
  H        -9.0212455906       10.1854726200       23.8861839454
  H        -8.2928965040        8.7692052364       24.4767498390
  C        -9.6148387996        9.5865350484       25.8079512409
  S        -3.9178293815       13.5860416726       36.7823184960
  C        -3.3259140261       16.1019608965       37.5840307108
  H         2.1728636836        5.1929394198       10.2206638918
  H         1.6372887681        6.2564579370       11.4218479346
  H         2.3442055755        6.8127509853        9.8678081082
  H         5.8274848568        5.3945987422       32.3750626978
  H         5.9695495811        7.0189566595       33.0970837672
  H         7.3557502266        6.3038256236       32.1997337271
  H        -9.7621601686       10.5400368190       26.3416301190
  H        -9.2562003138        8.9827978557       26.5701655521
  H       -10.4821840687        9.1112962238       25.3717902310
  C        -4.2270213720       14.1528893665       38.4549029280
  N        -3.8289903951       15.4271252966       38.6679051804
  O        -3.0151063980       17.2913592151       37.5037634499
  S        -5.1232008708       13.2750763156       39.6563488843
  C        -4.1066953597       16.1309132555       39.9536220659
  H        -4.7517494861       17.0767629418       39.7694428209
  H        -4.6263056973       15.5151864853       40.7253986589
  C        -2.7567473382       16.5656129448       40.6097503804
  H        -2.7180952456       17.6037610149       40.8425875653
  H        -2.6051619003       16.0985914577       41.5626753672
  H        -1.8581117477       16.1841000147       40.2051412369
