352
i=
  H         5.3823758595        1.6471373442       12.5988785500
  C         4.6140277121        2.3066254759       12.9947900168
  H         5.1668243238        3.2787244965       13.1454033010
  C         3.5844337399        2.5494536787       11.8428487955
  C         4.0938355853        1.9843090189       14.4079281688
  C         4.2438753965        2.8425392572       10.5598614573
  H         2.9825241850        3.4035284993       12.0279410497
  H         3.0423749818        1.6396299586       11.7769388318
  H         3.8663219003        0.8906016879       14.4976649203
  H         3.1449313197        2.4545211397       14.6243489821
  H         4.7563048047        2.3160378715       15.1896428479
  C         4.5953966485        1.5344918968        9.8274695554
  H         3.7592329204        3.4708668283        9.8437861645
  H         5.1495171791        3.4060127541       10.7715495896
  C         5.3542097026        1.7668333444        8.5149197742
  H         3.7117548117        0.8934801272        9.7674930796
  H         5.2292675423        0.9504893086       10.5296370947
  C         6.6681250614        2.5110659091        8.5922086422
  H         4.6821597233        2.2105898528        7.8426462623
  H         5.4800226476        0.8184627039        8.0610120991
  C         7.8730983301        1.7910626129        9.1484985403
  H         6.8018519718        2.6954147222        7.5014552640
  H         6.5071080635        3.4806818465        9.0044249972
  C         9.1673056244        2.6993592113        9.2384001405
  H         8.0316737911        0.8617557072        8.6649812235
  H         7.7197441836        1.4777855003       10.1857959149
  C         8.7806720570        4.0282945788        9.8938449369
  C         9.5579123503        3.4019317224        7.9264837250
  C        10.3011537156        1.9398506451        9.9540419500
  C         9.0413588979        5.0929111112        9.0797411536
  C         8.3458006167        4.4054209581       11.1933424446
  C         9.5236935601        4.7360537718        7.8459807457
  C        10.0758570264        2.7956257704        6.7778676518
  H         9.9032631809        1.4615827939       10.8875312680
  H        10.6056490905        1.1481255156        9.3461428287
  C        11.4662279581        2.9216571097       10.3349379974
  S         8.5051111722        6.5509272551        9.8214529624
  C         8.2013587779        5.7644570608       11.2695235018
  H         8.3030674715        3.6317763636       11.9264943045
  C         9.8595824147        5.3931997823        6.6690455381
  H        10.1508887088        1.7559351780        6.8636117754
  C        10.3753390366        3.3871407121        5.6129236740
  H        11.1699393442        3.7732109220       10.9575124735
  H        11.9434901372        3.3457170662        9.4301537316
  C        12.5697522380        2.2214408878       11.1254776120
  C         7.6251066359        6.4577876099       12.5046724714
  C        10.2952974952        4.6983646829        5.5356152152
  H         9.7488469074        6.4839080367        6.5731129729
  C        10.9391879994        2.9945489070        4.4224215962
  H        13.4689474958        2.8028831421       10.9493512724
  H        12.7058165514        1.1819167907       10.8210302046
  C        12.3164092975        2.1218800978       12.5815071772
  C         7.5071010767        7.8506410848       12.6835597386
  C         7.3455890605        5.6620987383       13.6929204879
  C        10.6917788016        5.4169279497        4.3091935909
  C        11.0409004733        4.1280421782        3.6076687385
  S        11.1301821286        1.4902198405        3.6985099751
  H        11.9558847990        3.1282044807       12.8438015991
  H        11.4561662652        1.4051153693       12.9091284273
  C        13.6059476587        1.7757585574       13.3691339841
  N         7.7704960575        8.7764239886       11.6663256216
  C         7.2081586027        8.4538757231       13.8885322729
  C         6.9116225659        6.2513404855       14.8914362612
  H         7.4324043240        4.6013774232       13.5618519531
  C        11.9190081846        6.3312181756        4.6010164283
  C         9.5041544381        6.2407946409        3.6757097320
  C        11.4337470698        3.6966570422        2.3088676598
  C        11.6168041424        2.3245306555        2.2232765106
  H        14.2315918185        2.6302977885       13.5531432825
  H        14.2786532561        1.1863628041       12.8043247090
  C        13.2277795100        1.0836961911       14.6765845081
  S         7.7034998718       10.2800348288       12.2944808491
  N         7.2406805404        9.8841020695       13.8538276776
  C         6.9859469488        7.7503417852       15.0773653950
  H         6.6262919183        5.5777933846       15.6546604580
  H        11.7854347873        6.9577060150        5.5033269926
  H        12.0826132282        6.9770913954        3.7617506983
  C        13.1894940923        5.5328828369        4.8824851213
  H         9.0585105143        6.8588046216        4.4014340232
  H         9.9043463805        7.0000093357        2.9627301230
  C         8.4852388269        5.3709328404        2.8820181946
  H        11.5974636930        4.4248502355        1.5595733690
  C        11.8920939714        1.6252750324        0.8944283518
  H        12.4832455918        0.3480163009       14.5202915443
  H        14.1449740620        0.5724801006       15.1134721797
  C        12.8030065696        2.0093478667       15.8754851616
  C         6.8698018367        8.4556091221       16.3590482311
  H        13.0234830829        4.8767456564        5.6930672532
  H        13.3423625193        4.7462557191        4.1531231906
  C        14.5308579584        6.2983105882        5.1471253479
  H         8.0345655867        4.5494931005        3.4918117948
  H         9.0004333769        5.0106749352        1.9992063457
  C         7.5002719727        6.3199290253        2.1931190917
  C        11.9825049104        0.1689233807        0.7677981135
  C        11.9812051782        2.3739063213       -0.3278077867
  H        11.9862252139        2.6730082228       15.5946018892
  H        13.5590773213        2.7510407366       16.2034592298
  C        12.5414113481        1.2489147646       17.1844730879
  H         7.0233674196        9.4779715152       16.2679644840
  C         6.5207405098        8.0368952581       17.6366322606
  H        14.2943501055        7.2540143156        5.7000879837
  H        14.8756999575        6.5984878933        4.1706425763
  C        15.6281210034        5.5249981616        5.8290862838
  H         6.9769812509        7.0085212562        2.9006606433
  H         8.1195200457        6.9342728416        1.6319877338
  C         6.4225790536        5.5738375212        1.4459796854
  N        11.7971547880       -0.7223680149        1.8240948297
  C        12.2513195574       -0.4140397608       -0.4453951362
  C        12.2543848707        1.7827469617       -1.5756415901
  H        11.7926364933        3.4035408161       -0.3059021974
  H        11.5917680651        1.4765057189       17.5053840578
  H        13.3378589999        1.5350673287       17.8744100478
  H        12.5423540813        0.2030986480       17.0015659137
  S         6.2693079675        6.4039281869       18.1253041458
  C         6.5400557025        9.0389145694       18.7488735246
  H        15.1495867192        5.0664990437        6.7223498476
  H        15.9253106865        4.7837424252        5.0960045905
  C        16.8373511023        6.3319980798        6.3121605918
  H         5.7778574693        5.0225924562        2.0851006877
  H         6.9746745782        4.9040305838        0.7362057442
  C         5.5538146430        6.4908428577        0.5670995733
  S        11.7689505052       -2.2341346940        1.2314707364
  N        12.1386442042       -1.8236941267       -0.3204956983
  C        12.5016078154        0.2637095555       -1.6624508381
  H        12.3445352499        2.4016326257       -2.4345512297
  C         6.0790219085        7.0447307057       19.6807656363
  N         6.1753090338        8.3834121165       19.8722738284
  O         6.8460972812       10.1916894596       18.5825916448
  H        17.1240642385        6.9422911421        5.4304271178
  H        16.3793057327        6.9271577550        7.1106463004
  C        17.9482728314        5.4070847659        6.7437580045
  H         6.2355372190        7.1236406884        0.0278093917
  H         5.1265093094        5.9161995954       -0.2230586768
  C         4.5291119583        7.4428486204        1.2270158876
  C        12.7966510734       -0.5343683495       -2.8307398303
  S         5.5224268701        6.1180018397       21.0738299095
  C         6.2448629378        9.1889637453       21.0450038684
  H        17.6368665274        4.8064586027        7.5649949803
  H        18.1387638924        4.6770468643        5.9778933982
  C        19.1951915110        6.1981222357        7.1572247170
  H         4.6066877986        7.3996978537        2.3114195909
  H         3.5197894758        7.0439072593        1.0893350514
  C         4.4877469549        8.8372114716        0.6713003991
  H        12.7202970672       -1.6355258024       -2.7581734911
  C        13.1808240174       -0.1388834681       -4.0701005360
  H         5.4816201668        8.7504136878       21.6758739819
  H         5.9152798631       10.1744936658       20.8730039082
  C         7.6079917587        9.0892859740       21.6248964534
  H        19.6394952085        5.8878643054        8.1204417173
  H        18.6840472408        7.1585277485        7.3449121672
  C        20.1952615629        6.3117538607        6.0100398048
  H         5.4273174023        9.3765184891        0.7790129182
  H         4.1314426001        8.8064151748       -0.3370004087
  C         3.4161170067        9.6670168747        1.4201490823
  S        13.6956211214        1.4307323848       -4.5570015269
  C        13.3880557163       -1.2278404695       -5.0343645977
  H         8.2250982012        9.8672567139       21.1972150146
  H         8.0487824615        8.1288892384       21.4793070150
  H         7.6185288325        9.2882794957       22.7319255001
  H        21.1897457830        6.0964339132        6.3336771014
  H        20.0867192156        5.4436927531        5.5428414342
  H        19.9860027483        6.9765258975        5.2731775924
  H         3.6926027522       10.6570095894        1.7084770945
  H         2.6014309545        9.7493806683        0.7597831217
  H         3.1552148216        9.0707099529        2.3232013527
  C        14.0201031253        0.7071585326       -6.0986628282
  N        13.8996753377       -0.6443966125       -6.1403054581
  O        12.8675375300       -2.3638684992       -4.9994026961
  S        14.8883964495        1.5621095121       -7.3959447169
  C        14.1435519011       -1.4715098843       -7.3244807869
  H        14.1404611557       -2.4582128531       -6.9698709331
  H        15.1653936890       -1.3118129730       -7.5925756352
  C        12.9724852177       -1.2618194234       -8.2665343516
  H        13.3869498953       -0.6818425274       -9.0900625715
  H        12.1320612458       -0.7799520784       -7.7825722427
  H        12.6090577586       -2.2858404483       -8.5255630467
  H        -3.1050884562       14.7467612326       16.7299807503
  C        -2.8565260195       13.7146736322       16.5965010177
  H        -3.6272071330       13.0584018858       17.0021197893
  C        -1.5436722850       13.6127005898       17.4582430315
  C        -2.5818388639       13.3489831562       15.0830992026
  C        -1.7057530639       14.0227045784       18.9606170668
  H        -1.2240725254       12.5714051530       17.4247257393
  H        -0.7439895879       14.2058776324       17.1377110485
  H        -2.5675732810       12.3375162507       14.7718455734
  H        -3.4428940984       13.8614866424       14.5805076085
  H        -1.7614842065       13.8551753465       14.6788560309
  C        -2.2351490823       12.8846123833       19.8284017947
  H        -2.4945852610       14.7799095633       19.0790533474
  H        -0.8939146730       14.5467219242       19.3629104809
  C        -2.2833500215       13.2713647786       21.3171332182
  H        -3.2842021317       12.6280964354       19.5551206249
  H        -1.6242366035       11.9999036119       19.7563420895
  C        -1.1827922497       12.6411625666       22.3279265707
  H        -3.2937747763       12.9291358352       21.6443110356
  H        -2.1776031307       14.3203597201       21.5235542259
  C        -0.0444423137       13.5886153800       22.6108428705
  H        -1.5799009345       12.4829958475       23.3178735641
  H        -0.7807319842       11.7554912896       21.7529597509
  C         1.1014166271       13.0336125482       23.4160711148
  H         0.4041352396       13.9566983800       21.6606826922
  H        -0.4419290794       14.5002459247       23.0074015337
  C         1.4957649625       11.7306616464       22.7602165305
  C         0.8083455879       12.4356890706       24.7302304782
  C         2.3277356517       13.9537502924       23.4535223475
  C         1.5503889867       10.6618925397       23.6390934113
  C         1.9891275990       11.3373701055       21.5295257141
  C         1.0159026121       11.0672838693       24.8629250666
  C         0.3473279424       13.1493828059       25.7976908784
  H         2.5099559886       14.2017726680       22.3496217675
  H         2.0528987234       14.8814357190       23.9888992006
  C         3.5325966478       13.3313467965       24.1411644435
  S         2.0480679292        9.1661984074       22.9729162025
  C         2.3199236806       10.0058785593       21.4973367587
  H         2.0520846624       12.0920367576       20.8513225479
  C         0.6812422386       10.4899575271       26.0447085509
  H         0.3970689194       14.2058451473       25.7504196227
  C         0.0011568102       12.5039213019       26.9783877873
  H         3.9011075002       12.5475439989       23.4813942434
  H         3.2570103358       12.8095305202       25.0304082218
  C         4.7560441270       14.2579059915       24.4214254630
  C         2.7562677666        9.2545150992       20.2567094504
  C         0.0622388299       11.1527381170       27.1102853354
  H         0.8495110136        9.4476682653       26.1934194831
  C        -0.4600608187       12.9242943613       28.1960590084
  H         5.4051519268       13.7798871618       25.1633145486
  H         4.3319344829       15.0373986851       25.0214706117
  C         5.5149607009       14.7224372812       23.1687396992
  C         2.6028626813        7.8404621061       20.0381990662
  C         3.1632849903       10.0528632540       19.1249392022
  C        -0.3812060626       10.4611304691       28.3500035505
  C        -0.6344039799       11.8173996465       28.9978181299
  S        -0.6761966137       14.4587129098       28.9406405303
  H         5.9757852970       15.6019474089       23.5531108156
  H         4.9256234213       14.9599688932       22.2705753293
  C         6.7613192793       13.7499451010       22.7525250579
  N         1.9636379669        6.9667575363       20.9754706227
  C         2.9469188700        7.2806758131       18.8380653087
  C         3.3699174541        9.4459680749       17.8644871586
  H         3.1642813189       11.1459957122       19.1644826030
  C         0.6762443490        9.6346871844       29.0684130414
  C        -1.6670608391        9.6005894843       28.0811465683
  C        -1.1926089490       12.2268725255       30.2339117992
  C        -1.2438550929       13.6116278244       30.3722914423
  H         7.6482686604       14.2537346121       22.3578286417
  H         7.0387059182       13.1554079135       23.6232252060
  C         6.4170613682       12.8266246295       21.6133608728
  S         1.9650773512        5.4994781082       20.2990263752
  N         2.7038373637        5.9521170406       18.8888018731
  C         3.2530810353        7.9354874562       17.6522956460
  H         3.7355267693       10.1546840674       17.0622720182
  H         0.9731923248        8.6951476899       28.6534961983
  H         0.3153360244        9.0369155803       29.8936870854
  C         1.8454411582       10.5226119963       29.5732955356
  H        -1.3339869281        8.7647399478       27.3592637809
  H        -2.0769539279        9.2529170083       29.0040144255
  C        -2.7715789991       10.3785458633       27.4588685351
  H        -1.3763344273       11.4498059422       30.9889607230
  C        -1.6250051535       14.3758610865       31.5919473853
  H         5.3924866219       12.4177041529       21.7604024949
  H         7.1058618611       12.0002898274       21.5618536727
  C         6.3430766150       13.4774278882       20.2174088282
  C         3.4228196357        7.1447459499       16.4463814118
  H         2.0959680468       11.2907144709       28.8319204685
  H         1.4130572832       10.9530307896       30.4778978268
  C         3.0326289644        9.6492114570       30.0184911491
  H        -2.5155017011       10.8745591571       26.5413275579
  H        -3.0247774258       11.1797975711       28.2035521975
  C        -4.1803917537        9.6544136038       27.3469017582
  C        -1.6365853916       15.7927925544       31.6826719825
  C        -1.8578240778       13.6228259822       32.8404594267
  H         5.6956459396       12.8887538904       19.6325773473
  H         5.8854088700       14.4336417614       20.3912240816
  C         7.6604081402       13.7903138993       19.4769104081
  H         3.1962204191        6.0606548414       16.4473171296
  C         3.7170296604        7.4896977117       15.1736297562
  H         3.4419192825        9.0817569054       29.2634335593
  H         2.7947113080        8.9521824744       30.8246051926
  C         4.1370149788       10.4920708364       30.5946173712
  H        -4.0211445746        8.7725622606       26.6998338719
  H        -4.6090100981        9.4200930862       28.3351659621
  C        -5.2232233463       10.6301200835       26.7466694531
  N        -1.3427848384       16.7014261822       30.6467281651
  C        -1.9003807348       16.4184106189       32.9235864758
  C        -1.9707778962       14.2817141333       34.0787066926
  H        -1.6604675262       12.5518993736       32.9266128055
  H         8.1068696802       12.8680381857       19.1366166454
  H         7.4650882768       14.3958861578       18.5931803082
  H         8.4139060164       14.1930031561       20.1219413290
  S         3.9948502005        9.1213127718       14.6968128967
  C         3.7608403693        6.4884651391       14.1092620394
  H         4.1559742711       11.4328338884       30.1200221964
  H         4.0212155738       10.7091976311       31.6510028163
  C         5.4725584794        9.8175381460       30.5226319578
  H        -4.8143029806       11.4210868730       26.0743679311
  H        -5.5346728542       11.2175623692       27.6164362361
  C        -6.2256009291        9.8818186511       25.9890705603
  S        -1.4959740300       18.2042738154       31.2480131173
  N        -1.7410743907       17.7709657153       32.7946368427
  C        -2.1412946438       15.7686177010       34.1032150648
  H        -2.0737338692       13.6743347462       34.9596107419
  C         4.1659562741        8.5690644267       13.0809865201
  N         3.9977978263        7.2555669129       12.9739960205
  O         3.4267692158        5.2976032822       14.2353037731
  H         6.1015260868       10.5414777398       31.0548458284
  H         5.9138949463        9.7663432613       29.6075944368
  C         5.5228379251        8.5131867263       31.3090495479
  H        -5.7453174415        9.3208679119       25.2409297466
  H        -6.7396297614        9.2976638591       26.7859118606
  C        -7.3534581609       10.6873025246       25.2485566030
  C        -2.4767723252       16.5204131085       35.2290986769
  S         4.4177703608        9.5789805086       11.6648795312
  C         3.9610102424        6.5481055499       11.6859714886
  H         6.4192749933        8.4717074783       31.9777810051
  H         4.8468680307        8.5859896321       32.1149684449
  C         5.4629363178        7.2115608365       30.4456520959
  H        -6.9957741214       11.0368836453       24.2739255080
  H        -7.4978010827       11.6172359128       25.8792122021
  C        -8.6288041905        9.9707869929       24.9871452480
  H        -2.3171060905       17.5758214179       35.0978402715
  C        -2.9238696932       16.2103741642       36.4950029940
  H         4.6433164256        7.0067388565       11.0581331739
  H         4.2781592424        5.5113364850       11.7373761545
  C         2.5101009353        6.7493253633       11.0714356764
  H         4.6138517487        7.1119041925       29.8694616346
  H         5.5118156091        6.4704392662       31.2258740693
  C         6.6189745465        7.0375390939       29.4351219205
  H        -9.2553334809       10.4956994137       24.2073166460
  H        -8.3221505046        8.9733995558       24.6939103534
  C        -9.4649774428        9.7900141703       26.2187804951
  S        -3.3715204855       14.6456659749       37.1306451799
  C        -2.9393130590       17.3410884735       37.4990397495
  H         2.3807905542        5.8980175877       10.3638742501
  H         1.6757864619        6.6940988063       11.8528927282
  H         2.4147608730        7.5892366273       10.4026436261
  H         7.5202465846        7.2383475038       29.8730341724
  H         6.3904094881        7.7208815942       28.5594715069
  H         6.7085487295        6.0483165085       29.1720409159
  H        -9.1517644492        8.8702438529       26.6837289067
  H       -10.4990438502        9.6058374849       25.9506243217
  H        -9.3322543391       10.6238121629       26.8929959421
  C        -3.5819702708       15.4699700657       38.6706718393
  N        -3.4060869983       16.8060442684       38.6940901127
  O        -2.5476472509       18.4910278229       37.2733590330
  S        -4.0848118701       14.6310511440       40.1521734282
  C        -3.4404230809       17.6428000140       39.8859499200
  H        -3.5521857467       18.6101669675       39.5237930956
  H        -4.3081684011       17.3598229199       40.4642053029
  C        -2.1426971551       17.4402026858       40.6360385318
  H        -2.2168020705       16.7140797684       41.4529939891
  H        -1.2828855667       17.3446017880       40.0207936233
  H        -1.9272300731       18.3131785892       41.2568550870
