352
i=
  H         2.8170670865        4.2344673051       12.1195881695
  C         3.1420278385        3.1756260081       12.1815072974
  H         2.4071555114        2.7431528917       12.8819206062
  C         2.7903489868        2.5667250292       10.8085839336
  C         4.5791827177        3.0610587745       12.7703059573
  C         3.8157720289        2.7694157754        9.6609075934
  H         1.9395075412        3.0855655070       10.5253500909
  H         2.5851491233        1.4660811816       10.9180587157
  H         5.1557721947        3.8133693608       12.2723251787
  H         4.9666483456        2.0482403459       12.6942167300
  H         4.7088445155        3.2310051614       13.8041749015
  C         4.5346132379        1.4466277481        9.3923266449
  H         3.2816546381        3.1403071458        8.8181178406
  H         4.4883524393        3.5629714092        9.9863704309
  C         5.5893001475        1.5135521769        8.3709058889
  H         3.8575844016        0.6219381329        9.0831214847
  H         4.9474268538        0.9285591437       10.2655269590
  C         6.7352548133        2.4829268896        8.6309409987
  H         5.2302158174        2.0165253049        7.4666586584
  H         5.8956944878        0.6537858274        7.8349685344
  C         7.9895734765        1.7328530953        9.1128325573
  H         6.9103844508        3.1177651173        7.7778565042
  H         6.3992570166        3.1282246771        9.4661564613
  C         9.2546558915        2.7147352329        9.3271614582
  H         8.2769326661        0.9202987008        8.5089109175
  H         7.8006850430        1.3480142111       10.1103373469
  C         8.8017283348        3.9990175347       10.0329804486
  C         9.5501821069        3.4620083898        8.0536453389
  C        10.4030385434        2.0050292228       10.1059024522
  C         8.8485510590        5.0716437059        9.1654655611
  C         8.4561647553        4.3719089972       11.3334025347
  C         9.3178186381        4.7685558695        7.8863059336
  C         9.9439379371        2.8269598137        6.8943867845
  H         9.9776179155        1.4624196486       10.9517928293
  H        10.7465616988        1.2792801913        9.4613640447
  C        11.5168109950        2.8879830227       10.5146816331
  S         8.2640800372        6.5454990462        9.8966402214
  C         8.0901064958        5.7143091639       11.3745518489
  H         8.3669967641        3.6351797645       12.1718084799
  C         9.6208679069        5.3965713561        6.6807314553
  H        10.0878889901        1.8039893782        7.0371790260
  C        10.2476839803        3.3664089542        5.7229252356
  H        11.2414222813        3.8382921458       10.7945705443
  H        12.1232977891        3.0426687607        9.6195006046
  C        12.2322316192        2.2570714194       11.6807834056
  C         7.7424898219        6.4751238616       12.5855095294
  C        10.1049254611        4.7065949484        5.4976617579
  H         9.4029126589        6.4786072064        6.5649453652
  C        10.6497322688        2.8650596479        4.5591385160
  H        13.2234584436        2.6946198400       11.7378395750
  H        12.3731706292        1.1579758335       11.5214963558
  C        11.6697728513        2.4721358677       13.0744823203
  C         7.7033449933        7.8866353210       12.7557338763
  C         7.3341465395        5.6951502303       13.7925717561
  C        10.5889887993        5.3534583302        4.2367682883
  C        10.9143319987        3.9410601683        3.7013446156
  S        10.7918875242        1.3221888017        3.8567935847
  H        11.4640822047        3.5250214516       13.3991707694
  H        10.6724858395        2.0644810773       13.1927563004
  C        12.5799058736        1.8437364698       14.1205679484
  N         8.0788207127        8.8145639423       11.7578166476
  C         7.3353386395        8.4536956248       13.9557164580
  C         7.0956424838        6.2727048945       15.0783661129
  H         7.3824674406        4.6297189176       13.6653806415
  C        11.7872361424        6.2092527668        4.6521417976
  C         9.4583330705        5.9878394850        3.3814163282
  C        11.4458564076        3.4578864392        2.4696899681
  C        11.3268822771        2.0815135989        2.3505560941
  H        13.5749662876        2.3355176189       14.0732173148
  H        12.7063555105        0.7779331586       13.9354741583
  C        12.0153830069        2.1256793859       15.5820509264
  S         7.8960496284       10.3199117758       12.4134304938
  N         7.3507830600        9.8485872497       13.8915384808
  C         7.0509729783        7.7557525947       15.1554558819
  H         6.9216835349        5.6365816656       15.9186769638
  H        11.5457997240        7.0807328814        5.2137355442
  H        12.2311296751        6.6025157348        3.7071774382
  C        12.9170743355        5.4572492762        5.3395308553
  H         8.9278521922        6.7017319646        4.0221403473
  H         9.9038539628        6.5740218899        2.5642711871
  C         8.4375670371        4.9416194287        2.8031964631
  H        11.7099030898        4.2084161812        1.6639060347
  C        11.6892789511        1.3049144351        1.1065911867
  H        11.4039893765        3.0371679319       15.7176782206
  H        11.4818464641        1.2767793335       15.9516596997
  C        13.2349082599        2.2629443387       16.5960209184
  C         6.8597526121        8.5006630236       16.3547977042
  H        12.4982052625        4.8785483238        6.1515176143
  H        13.3325769995        4.7423960382        4.5843283926
  C        14.0216179168        6.3516055293        5.9175638322
  H         8.2149399778        4.1984747291        3.5988729879
  H         8.7748679186        4.5800410743        1.8624677319
  C         7.1129772764        5.4711839493        2.3158845780
  C        11.7029962221       -0.0695786366        0.9210806104
  C        11.9550358596        2.0257150535       -0.1723597987
  H        13.9562899360        2.9188383200       16.0729184047
  H        13.6464238483        1.2900972141       16.7753085035
  C        12.7051267641        2.7962512182       18.0127383790
  H         6.9443802653        9.4969381428       16.1756630041
  C         6.3724977008        8.1850812413       17.5965467697
  H        13.6115835597        7.0568465027        6.5868729412
  H        14.5363900544        6.8594421522        5.0909162763
  C        14.9774285303        5.5447027189        6.7392404542
  H         6.4937063581        4.5692124406        2.2106589905
  H         6.6915179552        6.0734392722        3.1758547075
  C         7.1647540479        6.1912356355        0.9736189503
  N        11.3963957501       -0.9772510256        1.8937696402
  C        11.9072923294       -0.7236224295       -0.2786503252
  C        12.2143774909        1.4169254079       -1.3815107714
  H        11.8480514363        3.0767881738       -0.2200644814
  H        13.5387256339        2.6572396453       18.7049485261
  H        11.8201886106        2.2091471197       18.3422704248
  H        12.3553729740        3.8631230368       17.9767581088
  S         6.0263791378        6.5925462374       18.2312772017
  C         6.3043223822        9.2983841576       18.5751459371
  H        15.0928815023        6.0110594061        7.7694943082
  H        14.6621217366        4.5029467909        6.8791923763
  C        16.3424101384        5.6850297318        6.1118332561
  H         7.1952595985        5.4803462144        0.1753104555
  H         8.0158245514        6.8314155856        0.8649378245
  C         5.8641036502        6.9922313973        0.8014801466
  S        11.4857312016       -2.4631464732        1.3017882609
  N        11.8456218168       -2.0903479619       -0.2029012544
  C        12.1269141778       -0.0131234076       -1.5151155557
  H        12.3426251911        1.9930803329       -2.2752599684
  C         5.6615842027        7.4543543289       19.7639760215
  N         5.9082147801        8.8124900478       19.7493810501
  O         6.6903837837       10.5013472804       18.4776097004
  H        16.4022007227        5.2839807098        5.1046476036
  H        16.5531980881        6.7111798306        5.9975518152
  C        17.3881114020        5.0363571096        6.9582182522
  H         5.8131658509        7.3637855114       -0.2323589998
  H         4.9958564389        6.3875135366        0.8797985013
  C         5.6367341821        8.1680163919        1.7195552360
  C        12.3474353196       -0.7742277216       -2.6832123472
  S         5.1112237445        6.7145276952       21.3478431165
  C         5.8571488789        9.7246624673       20.9155605644
  H        16.8080330279        4.4922664143        7.7615967202
  H        17.8419830866        4.2786406468        6.3253653234
  C        18.3944086389        5.9737146168        7.5751261370
  H         6.2116859922        8.9686805476        1.3068455860
  H         5.9861993738        7.9918007600        2.8129318108
  C         4.1615383127        8.7047610831        1.6276880628
  H        11.9132354565       -1.7034011688       -2.5314639548
  C        13.0317012963       -0.6249686966       -3.9120399762
  H         5.1594809800        9.4823937712       21.6618849015
  H         5.5123628637       10.6961060956       20.6039729508
  C         7.1639094778        9.7170561646       21.6577784291
  H        18.6090556015        5.6415778668        8.5481040800
  H        17.9602361960        6.9427938905        7.5793413779
  C        19.7037968602        6.1641706697        6.8749512064
  H         4.1277811242        9.4563128497        0.8526785262
  H         3.4499302641        7.8849156785        1.3283465397
  C         3.7286502975        9.2167154516        2.9907558295
  S        13.7258367958        0.8747135132       -4.4349904340
  C        13.0339470494       -1.7199659496       -4.8491214014
  H         8.0832063376        9.3878610650       21.1111741889
  H         6.9709306891        9.2690029004       22.6224510209
  H         7.3380604259       10.7729291062       21.8945799059
  H        19.6175692708        6.7033627822        5.8518971900
  H        20.5697468909        6.5426212067        7.4332081255
  H        19.9681078255        5.1497503394        6.6756367321
  H         3.5489004168        8.4170505496        3.6504874416
  H         4.3958870071        9.8637093200        3.5320078835
  H         2.8108661284        9.8065883713        2.9107271615
  C        14.1300116155        0.0038667265       -5.8840467022
  N        13.7156490762       -1.2887090873       -5.9401062362
  O        12.6221562860       -2.8501888347       -4.5875105459
  S        15.0998373771        0.7375771989       -7.1319840381
  C        13.8600826579       -2.0523184434       -7.1840950120
  H        13.9051853379       -3.0761654143       -6.8446648560
  H        14.7722100479       -1.8783315090       -7.7423716581
  C        12.4755576322       -1.8657978194       -7.9944050410
  H        12.3540205878       -0.7456436340       -8.2069107865
  H        11.6468682801       -2.2238493715       -7.4082606671
  H        12.3782283642       -2.4074420663       -8.9140324857
  H        -1.3621316244       13.3382367650       17.3032749757
  C        -1.8651120728       14.2260573400       16.8302811042
  H        -1.1040021815       14.9957463156       16.6816608604
  C        -2.8309314736       14.9019167064       17.7416615852
  C        -2.5352586221       13.7211509450       15.5259971858
  C        -3.3600161862       14.0856967337       18.9142025155
  H        -2.3706592995       15.8601922071       18.0917394167
  H        -3.6927102671       15.2313677740       17.1499721116
  H        -2.4763224274       12.6315277583       15.4276159770
  H        -3.5267595564       14.0737326859       15.4955726139
  H        -2.0738118333       14.1690522106       14.6835351476
  C        -2.3379745238       13.3393423000       19.8050546409
  H        -4.0334410501       13.2347042205       18.5553366858
  H        -3.9883328365       14.7360965999       19.4982967724
  C        -2.6628108144       13.4523214120       21.3072934720
  H        -2.1536894225       12.2707486223       19.5301263310
  H        -1.3492086187       13.8662930023       19.6888080578
  C        -1.6393974253       12.8294595685       22.2708661083
  H        -3.7281904979       13.0852795155       21.3661725802
  H        -2.7605521970       14.4615720065       21.6084291478
  C        -0.5419692269       13.8047982246       22.5708926632
  H        -2.1470163966       12.5654652559       23.1372413481
  H        -1.2641746165       11.9044928041       21.8028189450
  C         0.6686831989       13.1523332017       23.3523501187
  H        -0.1772400294       14.2384579465       21.5999491972
  H        -1.0035310281       14.5660673586       23.0998605457
  C         1.0632066235       11.7838948581       22.6498885248
  C         0.3345097412       12.3540844093       24.6496227155
  C         1.8752198911       14.0540427952       23.4037983614
  C         0.9433633858       10.6509391849       23.4364913146
  C         1.5556574037       11.4814859017       21.3401842618
  C         0.5138002028       11.0294736275       24.7380283114
  C        -0.1500770886       12.9423208044       25.7808734904
  H         2.1399136644       14.5653562478       22.4750782164
  H         1.6606208074       14.7991044337       24.2026766259
  C         3.1648919413       13.4324866627       23.8809246355
  S         1.4584335445        9.2295152025       22.6767182223
  C         1.7433960913       10.1232003972       21.1907296378
  H         1.6448594037       12.3297285901       20.6599288020
  C         0.2503855815       10.3288269799       25.8560953786
  H        -0.4311727722       13.9417002936       25.7190049345
  C        -0.4471206055       12.2839553156       26.9632175386
  H         3.4289884148       12.5746101136       23.2207927768
  H         2.9795127536       13.1358631345       24.9492313789
  C         4.3142189755       14.4709230125       23.8456779652
  C         2.1030430062        9.4180282902       19.9706873395
  C        -0.3767808666       10.9343872453       27.0221695207
  H         0.6342375463        9.2998932440       25.8606662093
  C        -0.9200152549       12.6715215246       28.2059631645
  H         5.0649474140       14.1367747363       24.5576293098
  H         3.8440738431       15.3763263701       24.2836695235
  C         5.0042864429       14.7136618348       22.5316871101
  C         2.0667105852        7.9887140265       19.6639518486
  C         2.5815875250       10.2368429937       18.8579796854
  C        -0.8056151208       10.2105510991       28.2446813990
  C        -1.0852096339       11.5603341891       28.9891938646
  S        -1.3297727526       14.1225111078       28.9712457688
  H         5.7891986301       15.4372497508       22.7001731371
  H         4.3302780918       15.2954870254       21.8776334669
  C         5.7487662529       13.5611110098       21.8490774672
  N         1.8269772146        6.9688877956       20.5974171616
  C         2.5468175275        7.4402197570       18.4485585974
  C         3.0033610546        9.7659960175       17.6670546693
  H         2.6565336057       11.3354653234       18.9472379760
  C         0.3667828494        9.4656704235       28.9294701598
  C        -2.0799349849        9.3936623035       28.1557570443
  C        -1.5244601880       11.8437188554       30.2485931797
  C        -1.7118745043       13.2192318630       30.4278331279
  H         6.7101819211       13.4228345043       22.3476329149
  H         5.1681111396       12.6796088501       22.0365940476
  C         5.8372287331       13.7719138130       20.3150337524
  S         1.7870560148        5.5086621876       19.8069798857
  N         2.4436876454        6.0042215342       18.3518185229
  C         2.9578374823        8.3210362919       17.3508414668
  H         3.2443022693       10.4288636348       16.8879552122
  H         0.7904169901        8.7349636116       28.2193449089
  H        -0.0190052373        8.9069289550       29.7939801751
  C         1.6017167073       10.3658484718       29.2651026982
  H        -1.9697142231        8.6216905613       27.4250370356
  H        -2.2840799908        9.0453122269       29.1032771832
  C        -3.3031222822       10.1923889567       27.7940848097
  H        -1.6773839677       11.0212949809       30.9771236388
  C        -2.1179592237       13.9069972884       31.6874761751
  H         5.4618854193       14.7924890482       20.2486175482
  H         5.0230903613       13.1005670086       19.9325030516
  C         7.1858468540       13.6427959270       19.6149910245
  C         3.1734988305        7.6485679329       16.0684667413
  H         2.1059938023       10.7190046714       28.3818955255
  H         1.2937740014       11.2469826691       29.8817482564
  C         2.6845732228        9.4985607175       29.9875665873
  H        -3.0913501869       10.9352608464       27.0380420394
  H        -3.6898935988       10.8329193628       28.6131475085
  C        -4.5695083959        9.2770935430       27.6034545615
  C        -2.0990114445       15.2826146087       31.9850827960
  C        -2.3936475334       13.0468653131       32.8899859361
  H         7.8684045942       14.4007571336       20.0203697776
  H         7.6632167852       12.6683254153       19.6759906533
  C         7.1317497648       13.9998703845       18.1126989453
  H         2.8594841932        6.6165682020       16.1830786640
  C         3.5584482496        8.0784467188       14.8423831526
  H         3.2791899772        8.9918063285       29.2005192558
  H         2.1500733709        8.7187635859       30.5701558532
  C         3.6423106354       10.1747030332       30.8886792997
  H        -4.4259899273        8.3805586367       27.0594190661
  H        -4.8804375665        8.8366661268       28.5536198110
  C        -5.7891441808       10.0698722246       27.1109450148
  N        -1.9486016230       16.2393479723       31.0092037254
  C        -2.4380852898       15.8976546432       33.1742148769
  C        -2.6682608449       13.6614602988       34.1289620400
  H        -2.3498172060       11.9490275309       32.8538896064
  H         7.8701951588       14.7328256278       17.9395732813
  H         7.2615952363       13.0640227445       17.4577924583
  H         6.1730830733       14.4240123249       17.8697156163
  S         3.7515729288        9.7371403098       14.3868200000
  C         3.6420092337        7.1300158479       13.7588115908
  H         3.7473587641       11.1446349018       30.4111002880
  H         3.3455496484       10.3543954555       31.8898630089
  C         5.0458176785        9.4450467823       30.7898972115
  H        -5.8689389206       10.9054068434       27.7160507371
  H        -6.6278386247        9.3753157885       27.1364044758
  C        -5.6897391390       10.5904508966       25.6345593749
  S        -2.0320759393       17.7355427399       31.5748750217
  N        -2.3344321014       17.2987592540       33.1074821865
  C        -2.7068926731       15.1047195979       34.3580134031
  H        -2.9463341486       13.0594307110       35.0095894246
  C         4.0748440014        9.1139107015       12.7780074537
  N         4.0892840056        7.7615938467       12.6772241316
  O         3.4516453094        5.9561345716       13.8333902876
  H         5.7220254174       10.1327218874       31.3324448023
  H         5.5141104695        9.4527000956       29.8591042857
  C         5.1003081925        7.9899114504       31.2563811358
  H        -4.7628997588       11.1519926619       25.4015235555
  H        -5.7730288655        9.8492897601       24.8656913109
  C        -6.9175475709       11.5048833277       25.3491097955
  C        -2.9382012443       15.8277499386       35.6006610797
  S         4.6017206348       10.2018601169       11.4542805551
  C         4.2407926309        7.0555951877       11.4292002767
  H         5.3430395335        7.7926615408       32.3291678750
  H         4.1090870750        7.5725291086       31.2790333645
  C         6.0782431411        7.2328132404       30.3271832786
  H        -6.6794882241       12.0899567701       24.4799922177
  H        -6.9217334410       12.2983466399       26.1033479422
  C        -8.1635432344       10.7206869206       25.0031981083
  H        -2.6619824080       16.8869054416       35.5268971634
  C        -3.5857591011       15.5114941562       36.7436280721
  H         5.0236865315        7.5729059183       10.8697871611
  H         4.6181180491        6.0752671335       11.7280385660
  C         2.8778370163        7.0159025458       10.6885980614
  H         7.0201199560        7.8101876670       30.4098657580
  H         5.8363778139        7.3859222904       29.2257337841
  C         6.4185789251        5.7947534416       30.8069258202
  H        -8.5076433470       11.2218594928       24.1096322271
  H        -7.7934646896        9.7034630965       24.7823913634
  C        -9.1984478157       10.8183587086       26.1322966738
  S        -4.4211661368       14.0384430115       37.0610690106
  C        -3.6757215352       16.5042122859       37.8112927912
  H         2.5512352056        8.0065589346       10.7642681765
  H         2.8360685583        6.8449831315        9.6504510080
  H         2.2571049432        6.3158241527       11.1944809316
  H         6.8555832846        5.9369470461       31.7839048629
  H         7.1701247744        5.2023319396       30.2861678610
  H         5.4781244599        5.1772566484       30.8494628173
  H        -8.9061296857       11.5328320817       26.8840474555
  H        -9.2574043595        9.8828161697       26.7121076334
  H       -10.1973887032       10.8387120685       25.8341192016
  C        -4.7684300520       14.6946277783       38.6693295438
  N        -4.3902564862       15.9472121513       38.8469428558
  O        -3.2325042933       17.6117491043       37.6535874279
  S        -5.5120805225       13.8450561957       40.0669429230
  C        -4.4700385504       16.7143504677       40.0915525060
  H        -4.9031003696       17.6740208823       39.7528041673
  H        -5.3153111469       16.3747065361       40.7756013154
  C        -3.0714445263       16.8511942629       40.8411414528
  H        -2.2714838687       16.3656836019       40.2563463923
  H        -2.6583903177       17.9095796504       40.8867040848
  H        -3.0221902577       16.4429130537       41.8538717128
