352
i=
  H         4.3142232547        0.8940194808       12.9034131888
  C         3.8781897873        1.9006857616       12.9651099880
  H         4.7238847862        2.5375841858       12.7365367415
  C         2.9324667161        2.0771338806       11.7543782244
  C         3.2869812961        2.1504993200       14.3890583825
  C         3.6763611878        2.2457672590       10.3541222349
  H         2.1612870425        2.8458524550       11.9694505246
  H         2.2522871193        1.2134040499       11.6698526516
  H         2.8787706464        1.1672060099       14.7124390350
  H         2.4375852925        2.8615723772       14.2813034567
  H         4.0362173751        2.5537868765       15.1475958392
  C         4.4571947851        1.0079152244        9.7808998338
  H         2.9238824342        2.4997590106        9.6072861633
  H         4.3611128163        3.0661987881       10.4314146793
  C         5.3169045363        1.3016145904        8.4851248826
  H         3.6812529454        0.2839541044        9.4808393883
  H         5.0584750585        0.5322365184       10.5875742673
  C         6.5386934698        2.2196890813        8.7651733557
  H         4.5316597771        1.6421557962        7.7839263174
  H         5.6073939941        0.3817711563        7.8715391989
  C         7.7747787932        1.4739558300        9.1860267289
  H         6.7138342756        2.7822887722        7.8481866247
  H         6.2124130995        2.8572094343        9.5087013663
  C         8.9574911883        2.4447502316        9.2796164116
  H         8.0600144423        0.7455621024        8.4169657330
  H         7.6559365589        0.8009155761       10.0473118719
  C         8.6314697498        3.7501864861        9.9266840879
  C         9.4481914251        3.2045051629        8.0186579733
  C        10.0327147067        1.7867218434       10.1432982724
  C         8.8216997908        4.8983533397        9.1688287068
  C         8.1509488735        4.1061393522       11.1849738542
  C         9.3491346974        4.5395063019        7.9119563492
  C         9.9493407309        2.6556183257        6.8172446853
  H         9.5117092106        1.2863662125       11.0066760670
  H        10.5597237955        1.0664104819        9.5647869875
  C        11.0801397066        2.7927991828       10.6204888724
  S         8.2683219699        6.3083243872        9.9535661805
  C         7.9694515624        5.3758287415       11.3870501115
  H         7.9324256829        3.3102236775       11.8496793507
  C         9.6182032770        5.1993809642        6.7550295484
  H        10.1097065067        1.5760028700        6.8349161592
  C        10.2318725963        3.3169601075        5.6464690905
  H        10.7990819333        3.5812617053       11.2706407056
  H        11.4856842849        3.2529472759        9.6358749062
  C        12.2629649626        2.0952823879       11.2819411527
  C         7.5916017315        6.0334275764       12.6464796943
  C        10.0846949755        4.6832718449        5.5463591283
  H         9.4251451602        6.2718380377        6.8260520476
  C        10.5572710704        2.9112667706        4.3680958526
  H        13.0874586402        2.8193333615       11.4200875313
  H        12.5825005448        1.1939967068       10.7005572443
  C        12.0640995330        1.4885536294       12.6576409622
  C         7.5634007756        7.4237208064       12.8983824116
  C         7.2557203050        5.2027868216       13.8329775265
  C        10.3544019842        5.3559484923        4.2785802995
  C        10.7513052866        4.0145037783        3.5393408702
  S        10.8175681465        1.4120287154        3.6618929232
  H        11.0791851144        0.9992051466       12.6282572937
  H        12.8589008869        0.7362457526       12.8119189203
  C        11.9888130753        2.3825749658       13.8717836542
  N         8.1030818055        8.4203770169       11.9992623423
  C         7.3266045235        7.9482575534       14.1448214890
  C         7.1861921673        5.7590239483       15.1103556367
  H         7.3417853474        4.1051572913       13.7531554458
  C        11.6069024010        6.2423558237        4.4379026598
  C         9.1648574399        5.9502194748        3.5128103257
  C        11.0817649127        3.5474578653        2.2280511696
  C        11.3030202050        2.2079307351        2.1902678728
  H        11.0490902822        2.9678796992       13.7874691906
  H        12.7284094428        3.1515681605       13.9077831041
  C        11.8903496440        1.6204076989       15.2323448659
  S         7.9672888692        9.9393603507       12.7175829952
  N         7.4329334237        9.3678444338       14.1533153268
  C         7.1366738315        7.2369497616       15.3275700838
  H         6.9116820101        5.0958230110       15.9124756423
  H        11.3112233991        7.0827953142        5.1556046721
  H        11.8158919192        6.7919296873        3.4542317105
  C        12.8269948856        5.3909862032        4.9116672197
  H         8.9090776004        6.7492099829        4.0435161267
  H         9.4603424667        6.2706413673        2.5531264544
  C         7.9953651659        4.9120475083        3.3722696837
  H        11.1583441410        4.2517099008        1.3475412651
  C        11.6428803757        1.4350280799        0.9014447923
  H        10.8497859456        1.7874398606       15.6388066486
  H        12.0417579178        0.5062497621       15.0283734500
  C        12.8665723632        2.0562010850       16.3154938687
  C         7.0245796234        7.8918939620       16.6083351730
  H        12.6530246303        4.8352208976        5.8320961466
  H        13.0016581323        4.5590575446        4.1690725807
  C        14.1162627626        6.1994128584        5.0787389065
  H         7.8852647505        4.2240615571        4.1926771660
  H         8.1528311815        4.2748096777        2.4768938516
  C         6.6585102141        5.5517416938        3.0680572356
  C        11.8322942251        0.0346368615        0.7492297755
  C        11.8153093367        2.1482162280       -0.4242177795
  H        12.8190232971        3.1497090561       16.5891080803
  H        13.8753044533        1.9670828755       15.9383591789
  C        12.7391565219        1.3430962650       17.6822269003
  H         7.2006511641        8.9479507133       16.4980716052
  C         6.7133368580        7.4891236548       17.8439383056
  H        13.7261309758        7.2419834922        5.1694532000
  H        14.6587992469        6.2221519069        4.1442707283
  C        14.9874964397        5.7703159420        6.2983210250
  H         5.8077616032        4.9102275593        3.3682159803
  H         6.6004487802        6.4613593266        3.6610567551
  C         6.5323372026        5.8120429966        1.6213374721
  N        11.5900459840       -0.9366397860        1.7725996246
  C        12.1857508033       -0.5658488201       -0.4082456842
  C        12.1988615444        1.5807792877       -1.6087755636
  H        11.5729925251        3.2086521340       -0.5077925007
  H        11.8439465025        1.6709833963       18.2906366555
  H        13.5852800897        1.4440757941       18.2880112672
  H        12.6183563883        0.2908758550       17.4638851661
  S         6.3869021403        5.8865802285       18.4362205749
  C         6.6225573762        8.5817792370       18.8168581228
  H        14.8652329414        6.2891300073        7.1665514077
  H        14.6660916370        4.7280051559        6.6194967404
  C        16.4784701936        5.7573358474        6.0014626625
  H         7.0330393039        5.1042908871        1.0240752640
  H         7.1415820645        6.7089767049        1.4356376307
  C         5.0424851213        6.0729564748        1.0927740817
  S        11.5978790916       -2.4527739240        1.1318226485
  N        12.1105828429       -1.9566412301       -0.3305054371
  C        12.4043110517        0.0899472579       -1.6139768212
  H        12.2122220898        2.1525960510       -2.4818950060
  C         6.1332486619        6.7061074966       19.9825404098
  N         6.2238737558        8.0536195324       19.9851318401
  O         6.6138529510        9.8366695083       18.5141432570
  H        16.6216364471        5.3077585818        5.0370358111
  H        16.8047257331        6.7380761032        5.8673163696
  C        17.2210791905        4.9577020173        7.0663060884
  H         5.0008282764        5.6952060176       -0.0074349269
  H         4.3848665921        5.3813156802        1.6087584986
  C         4.5132131460        7.4808598748        1.2378718063
  C        12.6801414592       -0.6680459721       -2.8157862212
  S         5.7744828584        5.9642322470       21.5775755423
  C         6.2303360887        8.9056167019       21.1952967614
  H        16.5394108002        4.9405064232        7.9932550721
  H        17.3561427330        3.8789891573        6.8378213697
  C        18.6321873379        5.5008142424        7.3714960189
  H         5.0064299017        8.1055738413        2.0310167227
  H         3.5614118920        7.5514162401        1.8169974193
  C         4.3981898971        8.2527361806       -0.0539323146
  H        12.7334381088       -1.6970604344       -2.6369195370
  C        13.1993342602       -0.3787677955       -4.0160831366
  H         5.3676808518        8.6470949962       21.7987468423
  H         6.0912943721        9.9516499990       20.8798372031
  C         7.5980745097        8.8581483021       21.9844796769
  H        19.0336706237        5.0713317972        8.2769987144
  H        18.5397558458        6.5938216521        7.6068170523
  C        19.5923998534        5.3396657165        6.1741821514
  H         5.2560454691        8.0638445101       -0.6574303008
  H         3.5906980248        7.8642912570       -0.6834506327
  C         4.3058578857        9.7652623645        0.1273725846
  S        13.6923928530        1.1660724318       -4.4612470719
  C        13.5209745451       -1.3646259213       -5.0531195860
  H         7.7965476282        7.9461189140       22.4885076479
  H         7.3071384334        9.5772635004       22.7456282368
  H         8.4212024774        9.1768565819       21.3134244841
  H        19.2901985753        4.4650396055        5.5832074937
  H        19.5968799694        6.2089930806        5.5446654567
  H        20.6064323389        5.2502142738        6.5290497704
  H         4.9888186704       10.1722684686        0.9186584333
  H         4.4645631908       10.2940715547       -0.7923502240
  H         3.2915340552       10.1075799112        0.3813167546
  C        14.2905462317        0.5347067278       -5.9851224602
  N        14.2624431882       -0.8551393933       -6.0841138550
  O        13.3580574371       -2.5120032204       -4.7992040565
  S        15.2723940923        1.4667806125       -7.0803259944
  C        14.7076609266       -1.6833427984       -7.2132240044
  H        14.8169760431       -2.7494721101       -6.8852725611
  H        15.7157085894       -1.3006430017       -7.3876374278
  C        13.8594260201       -1.7295844776       -8.4351622205
  H        12.9468791627       -1.2358648828       -8.1872640590
  H        13.5770011860       -2.7383141365       -8.8149488027
  H        14.4189471635       -1.1779098494       -9.1555472275
  H        -3.3429912510       15.4841289109       16.2690532623
  C        -3.2736943980       14.4204312421       16.3355650436
  H        -4.1717652529       14.0466088853       16.8779766503
  C        -2.2020001953       13.8927996449       17.2765146635
  C        -3.3290690557       13.7712235499       14.9679860101
  C        -2.3085817567       14.3106235246       18.7342484454
  H        -2.0855461911       12.8265440516       17.3247681475
  H        -1.2963390262       14.3568570878       16.9243090894
  H        -2.4710813008       12.9404303744       15.0234577849
  H        -4.3146273787       13.2028728644       14.8613332543
  H        -3.1608158048       14.4523962757       14.0749062632
  C        -2.5692101472       13.1454612220       19.6937848367
  H        -3.1495642618       14.9967889963       18.7686697504
  H        -1.3458434040       14.8359720792       19.0293784019
  C        -2.2291454035       13.5383971874       21.1054506509
  H        -3.5607110599       12.8082368015       19.6674523126
  H        -1.9711088867       12.2900176281       19.3557657563
  C        -0.8695944311       12.8586421929       21.5435318578
  H        -2.9798648139       13.1352239534       21.7784383644
  H        -2.1724289264       14.6303789349       21.2675296896
  C        -0.0223008232       13.8961657677       22.3048748203
  H        -1.0899040687       11.9952407531       22.2146117959
  H        -0.4143556185       12.3821255245       20.7221442894
  C         1.1717471178       13.1796794051       22.9992027391
  H         0.2032864135       14.5254702401       21.4876970054
  H        -0.5537598880       14.4865115967       23.0603955175
  C         1.5805562152       11.8456632768       22.2540868455
  C         0.7705919132       12.5130270618       24.1910680689
  C         2.4184150399       14.0824421147       22.9906795964
  C         1.3490254559       10.7858027672       23.1235831068
  C         2.2627448042       11.4717301755       21.1148325255
  C         0.8453231013       11.1589909442       24.3586494076
  C         0.3010651739       13.1864896504       25.3273167192
  H         2.6346870797       14.2986727060       21.9776878127
  H         2.1418673919       15.0063979247       23.4914672782
  C         3.6984277114       13.3039766380       23.5733113819
  S         1.9092158198        9.3075562701       22.4333332376
  C         2.3287971289       10.1015139441       21.0364346945
  H         2.6215244255       12.3322524287       20.4936750117
  C         0.5558205258       10.5492344415       25.5448319819
  H         0.1481178604       14.2444229373       25.2295602626
  C         0.1033109984       12.6071587163       26.5496737429
  H         4.1061369403       12.6374366726       22.7466520697
  H         3.4261055742       12.7407150619       24.4444053125
  C         4.7679802044       14.2912447252       24.0079414825
  C         2.8190218856        9.2189162002       19.8770333006
  C         0.1668274627       11.2523365756       26.7146607989
  H         0.5668403645        9.5154443283       25.6484030720
  C        -0.2485787877       13.0212617663       27.8298473639
  H         5.5545445989       13.8363162367       24.5910164437
  H         4.3326511539       14.8929950127       24.8120705644
  C         5.4185452065       15.0926003531       22.9237120665
  C         2.7933148384        7.8025766551       19.6636007205
  C         3.2733383252        9.9950214287       18.6263525362
  C        -0.3225006936       10.5918411337       27.9223425457
  C        -0.5482736779       11.9687267514       28.6405526441
  S        -0.4698893168       14.5249895543       28.5399872810
  H         6.0082613404       15.9011819278       23.3372914054
  H         4.6950082077       15.5777477429       22.2384658174
  C         6.3251467589       14.1477724663       22.0684575261
  N         2.1715371906        6.9048360089       20.6040012306
  C         3.0147073918        7.2199973143       18.4353334780
  C         3.4709387634        9.3636513760       17.4077026057
  H         3.3135914908       11.0316226344       18.6632223781
  C         0.7416708583        9.7585937234       28.6458338586
  C        -1.5944140337        9.7952377909       27.6721259971
  C        -0.9124073610       12.4111120582       29.9449300173
  C        -0.9162509124       13.7520056626       29.9694329957
  H         7.3439527933       14.4610039907       22.0201223421
  H         6.4893478042       13.1143983204       22.5050898425
  C         5.8889781378       13.9227834129       20.6260790383
  S         2.4576767301        5.4420792187       20.0345196019
  N         2.8093233528        5.8676145882       18.5139001388
  C         3.4201210026        7.8766185603       17.2574018680
  H         3.6013553567       10.0622195314       16.6036831349
  H         1.1082496882        9.0733659052       27.8614639597
  H         0.2552853556        9.1488848139       29.3741725948
  C         1.9479234526       10.5299378286       29.1620933396
  H        -1.4756417033        9.2126868589       26.7867368824
  H        -1.7740594139        9.1443399625       28.5685527131
  C        -2.8137428435       10.6234126950       27.3048862055
  H        -0.9611932227       11.6991289871       30.6388904068
  C        -1.2986010606       14.4759316245       31.2110716283
  H         6.1624698042       14.7920215902       20.1254001557
  H         4.7854054854       13.7756556411       20.6696644519
  C         6.5094977769       12.7409792265       19.9954249030
  C         3.7115283326        7.0905398265       16.1155174652
  H         2.2140624645       11.2835747245       28.3746872646
  H         1.7546147295       11.2678917121       29.9472099862
  C         3.0554025127        9.5848727961       29.6460270781
  H        -2.5599924586       11.2471782476       26.4528857783
  H        -3.1334992207       11.3019952102       28.1225954500
  C        -3.9970041025        9.7898258511       26.9693021397
  C        -1.3038587482       15.8908702123       31.4389034426
  C        -1.4439808149       13.6872135703       32.4442278515
  H         7.5454228054       12.6134701070       20.2864888087
  H         5.9769866533       11.8467102561       20.2525760741
  C         6.4125047601       12.8413028185       18.4106652075
  H         3.6476580580        6.0288242758       16.3166103849
  C         3.9173952275        7.5130711986       14.8267608385
  H         3.3106996268        8.8160729561       28.9351694125
  H         2.8044295816        9.0300907925       30.5083804601
  C         4.2964912359       10.3349237698       30.0696361261
  H        -3.7022041355        8.9322469878       26.3814320516
  H        -4.4572710483        9.3642760422       27.8768791157
  C        -5.0798351324       10.5902057866       26.2198941153
  N        -0.8373095322       16.8031684952       30.5576678794
  C        -1.6481825136       16.4707287130       32.6078761916
  C        -1.8952511917       14.2690616731       33.5912996877
  H        -1.2885407670       12.6482600151       32.4314952426
  H         5.5940651318       12.2333228062       17.9204123491
  H         6.2542011773       13.8262588306       18.0134936398
  H         7.3787079387       12.5010367958       18.0457512854
  S         3.9550878412        9.1658018017       14.2966983360
  C         4.0279483759        6.5199805111       13.7913356801
  H         4.4373267732       11.1946674525       29.4022600751
  H         4.1793752063       10.7837560288       31.1133034889
  C         5.6132336083        9.5375020821       29.9834111148
  H        -4.7024639566       10.8417597870       25.1923541604
  H        -5.3858205419       11.5080981099       26.7135658338
  C        -6.3747648295        9.8656414817       26.0364652110
  S        -0.9533511663       18.3339141171       31.1286258630
  N        -1.6434758823       17.9127932997       32.6003837897
  C        -2.1087045573       15.7399594987       33.7128553291
  H        -2.0967349146       13.6138831234       34.3925588798
  C         4.1969449186        8.4630654856       12.6975061429
  N         4.1193233679        7.1126761110       12.5817294096
  O         3.7537326069        5.3860026466       13.9951754049
  H         6.4680974960       10.1767962259       30.1098297436
  H         5.7553033283        9.2215304773       28.9727341797
  C         5.8868231402        8.4646466659       31.0867490401
  H        -6.2204055844        8.9489820718       25.4944370254
  H        -6.7566978529        9.6589961515       26.9649239886
  C        -7.3210953882       10.8588702701       25.3281981150
  C        -2.4977052641       16.4652820248       34.8635884260
  S         4.6091768887        9.4991886010       11.3786570407
  C         3.9882784805        6.3683102414       11.3198386904
  H         6.5050309989        8.8504131469       31.9469524229
  H         4.9712428163        8.1996246291       31.4921868750
  C         6.6714546098        7.3464067407       30.4028427671
  H        -6.8905233603       11.2513381239       24.3760506836
  H        -7.4678831127       11.7115412576       25.9267839080
  C        -8.5462062878       10.0766543357       24.9933736363
  H        -2.7111584268       17.5099959872       34.7712100502
  C        -2.8058254236       16.0919190309       36.1086504411
  H         4.4711893765        6.8030557323       10.4306066956
  H         4.3761576323        5.3411762756       11.3784145445
  C         2.5253055770        6.1298572714       10.9048410473
  H         7.4975310124        7.8928089059       29.9314125151
  H         6.1305080111        6.9336133114       29.5742305280
  C         7.0305604634        6.1885251496       31.3513771649
  H        -9.0207963662       10.7014571958       24.2211264174
  H        -8.2350126450        9.1905619521       24.5546731262
  C        -9.5796211061        9.9241635021       26.0382717724
  S        -2.7975197233       14.5060965473       36.8505000292
  C        -3.1102184201       17.1343839675       37.1113658573
  H         2.3585387494        5.1116608456       10.5958951899
  H         1.8259014581        6.3071212490       11.7283820675
  H         2.2187376710        6.7323926187       10.0800659666
  H         6.2572001987        5.6902324748       31.8929966178
  H         7.7586491341        6.4939549221       32.1078619434
  H         7.4177625594        5.3880440259       30.6741055240
  H        -9.9128048740       10.8753677793       26.4977425830
  H        -9.2602733415        9.1724752479       26.7511987142
  H       -10.4536365096        9.5263618886       25.5496485858
  C        -3.2158410828       15.3086506725       38.3479984901
  N        -3.5316791069       16.5991233398       38.2559700464
  O        -3.0442990218       18.3137765444       36.8031912808
  S        -3.4037423749       14.4441953400       39.8742055434
  C        -3.9082495408       17.4368078568       39.4382153544
  H        -4.2958227315       18.4328215614       39.1044443999
  H        -4.6613251668       17.0270370761       40.0643828823
  C        -2.6754444568       17.7293763006       40.2622876243
  H        -2.9430217434       17.9824617089       41.3093453522
  H        -1.9591753464       16.9038318279       40.4003093400
  H        -2.0930014721       18.5269823274       39.8103604802
