352
i=
  H         3.7948406772        1.8969240328       11.9812697518
  C         4.0068791453        2.9444990350       12.1035373972
  H         5.0953099890        2.8811453731       12.1371911830
  C         3.4938195062        3.7651495448       10.9053598467
  C         3.2183012330        3.3078517416       13.4092303815
  C         4.7566691525        3.9235951790        9.9558430837
  H         3.2477538173        4.8066796929       11.2558778644
  H         2.6607069480        3.2538553352       10.4090615250
  H         3.2627646706        2.4981401153       14.0736376566
  H         2.1646782406        3.5636567375       13.1863806921
  H         3.5969607795        4.1754195504       13.8423295233
  C         5.4265517372        2.6007477684        9.6330892487
  H         4.4259598824        4.3111484272        9.0130079635
  H         5.4832401802        4.5944470233       10.5303122404
  C         6.0104696058        2.6091464613        8.2266063351
  H         4.6808076412        1.8136651890        9.7213983438
  H         6.2200984697        2.4431606180       10.3476420724
  C         7.1783281628        3.5549847681        7.9765270186
  H         5.2273759810        2.9678890528        7.4732631280
  H         6.0111293198        1.5723724358        7.8477435804
  C         8.4578269969        2.8517981045        8.4984300460
  H         7.3543731053        3.8382163342        7.0016546849
  H         6.9965571751        4.4460465393        8.4619050556
  C         9.6047107500        3.7236332312        8.8270235856
  H         8.7684236838        2.1131198971        7.7071549573
  H         8.1853086364        2.3566303125        9.4192758469
  C         9.2547218043        4.9864692315        9.5047292173
  C        10.1126297880        4.3744696816        7.6053137889
  C        10.6933394698        2.8738761537        9.5306145249
  C         9.6368062119        6.0802915276        8.7694491051
  C         8.6845026983        5.3887494347       10.7105322175
  C        10.0964660546        5.7130616014        7.5293225749
  C        10.4849116787        3.6746161519        6.4588281206
  H        10.2521409649        2.7783765194       10.4921173149
  H        10.8260984086        1.8601404678        9.1487587087
  C        12.0951039463        3.5488489623        9.7186046101
  S         9.2449224355        7.6154914158        9.5463834880
  C         8.6527812047        6.7509586358       10.9013952811
  H         8.4523753202        4.6529494634       11.4763620910
  C        10.4963564618        6.2313697846        6.3186726726
  H        10.5050692281        2.6131326535        6.5710478268
  C        10.8325334237        4.2962103812        5.3024360095
  H        11.9611891290        4.5782456789        9.9300822053
  H        12.5146282341        3.6125613779        8.6993389942
  C        13.0224130106        2.9338113082       10.7562629066
  C         8.2022380483        7.3857521479       12.1564902430
  C        10.8401335392        5.6084778419        5.1230514617
  H        10.5287850267        7.3182975168        6.2706176134
  C        11.2546024317        3.8427346585        4.0721749984
  H        13.9294827301        3.3804122470       10.4799549173
  H        13.1125566355        1.9086319483       10.5584862486
  C        12.6079978692        3.0523619850       12.2035221191
  C         8.1622782487        8.7435156534       12.4386921225
  C         7.7558853543        6.4893725946       13.2588940471
  C        11.2842902164        6.2785741081        3.8414399375
  C        11.3749962921        4.9233736757        3.1699519742
  S        11.5604396936        2.3055241104        3.3856319126
  H        12.2559156110        4.0866525100       12.4177957452
  H        11.7189714323        2.4429773241       12.3710106620
  C        13.8178537686        2.8173245215       13.0722725232
  N         8.4819392246        9.7138654809       11.5324841867
  C         7.8594736135        9.2352517214       13.6814965975
  C         7.4593794297        6.9668702476       14.5022445126
  H         7.7540132997        5.4008635288       13.1678491102
  C        12.6213919115        7.0242853385        4.1403930486
  C        10.3123763364        7.2422529349        3.1814314103
  C        11.6574772362        4.4074742716        1.8508227810
  C        11.7297481719        3.0592154802        1.8056875812
  H        14.1980102189        3.7527078646       13.4839611017
  H        14.5174149290        2.3907648685       12.4162859348
  C        13.5623555683        1.6670913793       14.1251416742
  S         8.4980102138       11.1518162119       12.2942257328
  N         7.9864295914       10.6566415136       13.7557184927
  C         7.4432986884        8.3874746082       14.7418462726
  H         7.1563923413        6.2437186499       15.2592112885
  H        12.4517290355        7.7801858138        4.8819176781
  H        12.8619085537        7.6279842212        3.3046838282
  C        13.7613354142        6.1680575186        4.6014352334
  H        10.1192139992        8.0077991256        3.9304442025
  H        10.8096080291        7.7972740658        2.3797155395
  C         8.9898505500        6.5608354610        2.7083606307
  H        11.7415677981        5.1915163723        1.0209096505
  C        11.9863155352        2.2467472748        0.6070635590
  H        13.0914918182        0.8230032118       13.6962974688
  H        14.5259869901        1.3082339615       14.5163728226
  C        12.6835035622        1.9818571746       15.3541709431
  C         7.1310087076        8.9672789738       16.0484858913
  H        13.4093819806        5.4390043000        5.3776571886
  H        14.0894628814        5.5237991608        3.7701685369
  C        14.9347115112        6.9696753393        5.3033206581
  H         8.6275102472        5.9909937694        3.5197454695
  H         9.2553064666        5.8850907404        1.8963822991
  C         8.0076608649        7.5668975258        2.3270464842
  C        11.9437292369        0.8683834458        0.4606228757
  C        11.9988223549        2.8777649578       -0.7298635678
  H        12.2737532581        1.0043842384       15.7113172949
  H        11.8073850089        2.5047993728       15.0884718170
  C        13.3421360205        2.8414259049       16.4965348920
  H         7.2292844241       10.0646856940       16.0822993600
  C         6.8665762453        8.4321036791       17.3140939062
  H        14.4356180110        7.6061291584        6.1271601955
  H        15.4557222142        7.5410843498        4.5730832263
  C        15.9901658797        6.0877911970        5.9847174776
  H         7.8678253024        8.2306843528        3.1995622488
  H         8.3399850770        8.1144127206        1.4664680958
  C         6.6851101385        6.9108165311        2.0078431370
  N        11.6515805208        0.1023210958        1.5243422756
  C        12.1880319207        0.1802323478       -0.6777546766
  C        12.4812463200        2.2583599032       -1.8705906739
  H        11.9672298679        4.0036905660       -0.6804085421
  H        14.5016951834        2.7621487404       16.7226974672
  H        12.7167420813        2.5713311927       17.3731688918
  H        13.3164274709        3.8904140007       16.1741280982
  S         6.5682687275        6.8196264791       17.7208631110
  C         6.7058386766        9.4160340508       18.4411066420
  H        15.5296714582        5.4950947134        6.7788409257
  H        16.3661597232        5.4618622198        5.1871823463
  C        17.2996170814        6.7845110508        6.4031372919
  H         6.1659576384        6.3918297326        2.8034708438
  H         6.8933832499        6.2024006924        1.2017169588
  C         5.7145049585        7.8929692161        1.4983696957
  S        11.6832513372       -1.4542513319        1.0641219719
  N        12.1364053688       -1.1988063477       -0.4895759836
  C        12.5915870474        0.8007110502       -1.8456889014
  H        12.7441971643        2.8138132586       -2.7447902518
  C         6.2620592550        7.4284691290       19.4179427794
  N         6.2700240429        8.7805915745       19.5491458110
  O         6.9689275402       10.6307873391       18.4293759275
  H        17.7971991068        7.0630110676        5.4839052730
  H        17.0589877094        7.6641229507        6.9945803963
  C        18.2254398150        5.8031170150        7.0852634926
  H         6.2453134517        8.5203385438        0.7638850068
  H         5.0330749336        7.3112732734        0.9081172320
  C         4.9109857055        8.5858701776        2.5441705292
  C        12.9170711097        0.0094973729       -3.0489887675
  S         5.5552240346        6.4772178473       20.7433646334
  C         6.1450381474        9.4855788395       20.8117840369
  H        17.8772238093        5.4837087954        8.0284164495
  H        18.1637819572        4.8590863034        6.4372521450
  C        19.7040720153        6.4088662305        7.1586617827
  H         5.5270977050        9.2049952045        3.1957813764
  H         4.3816287222        7.8317282949        3.1139686451
  C         3.8394846472        9.4244144664        1.8677982713
  H        12.6391714461       -1.0172153398       -2.9663516763
  C        13.4123418245        0.3050761699       -4.3338146277
  H         5.4044502383        9.0397569923       21.4627033290
  H         5.8262547110       10.5094850070       20.5868345643
  C         7.5594019311        9.6151260414       21.3954881461
  H        20.3332280387        5.9311776634        7.9162569534
  H        19.6233548191        7.4479632865        7.3519376804
  C        20.2809320669        6.3674301418        5.7587417300
  H         3.2929553107        8.7529282219        1.2066583626
  H         3.1122595948        9.6235043572        2.6571958771
  C         4.1848034601       10.5889876042        1.0348705960
  S        13.9540966296        1.8602011750       -4.8778428192
  C        13.5600482554       -0.7469392179       -5.4277510449
  H         8.4195991318        9.4631085198       20.7175270002
  H         7.7031690017        8.9590708569       22.2601815514
  H         7.7256197632       10.5683423906       21.8255421632
  H        19.8935544215        5.4529404129        5.1946444991
  H        20.1522987277        7.3943110805        5.3032286590
  H        21.3283076855        6.1210176719        5.7480863690
  H         3.4530756925       10.8090340569        0.2664547088
  H         4.2497819140       11.5028005496        1.6257996335
  H         5.1404838727       10.4757378812        0.5064624045
  C        14.3411325788        1.0881364736       -6.3951364317
  N        14.1741541489       -0.2711719078       -6.5117085776
  O        13.0825367530       -1.9091304812       -5.2602153827
  S        15.4001537226        1.7916471212       -7.6646061392
  C        14.2162238202       -1.0700843086       -7.7374507390
  H        14.4852557899       -2.0839215814       -7.4357657904
  H        14.9377305515       -0.6234518227       -8.4918326025
  C        12.8889692165       -0.9369658193       -8.5547945924
  H        12.8596323350       -1.7385750454       -9.3341858998
  H        12.9086658219       -0.0617841931       -9.1402077514
  H        12.0627192564       -1.1040914181       -7.8779452399
  H        -3.1212975936       15.4666712669       16.0348203154
  C        -3.4227632152       14.4555753281       16.3957076795
  H        -4.3372885713       14.6262584974       16.8783469407
  C        -2.3331224661       13.9047469612       17.3815512676
  C        -3.5995297881       13.5076437947       15.2352927851
  C        -2.7233970443       13.9917184539       18.8558432904
  H        -2.1075509693       12.7909609447       17.2325988279
  H        -1.3668484387       14.4076573251       17.2246843368
  H        -2.6215223034       13.1216106346       15.0019175910
  H        -4.3206213063       12.8273917657       15.5262413440
  H        -3.9607117786       14.0116866725       14.4173530157
  C        -1.6775839786       13.6945888461       19.8422970418
  H        -3.4985838115       13.2406986530       18.9755950157
  H        -3.0775163853       14.9697795800       19.0447333385
  C        -2.1957081540       14.0244771844       21.2731209358
  H        -1.4487558715       12.5909075062       19.7165616937
  H        -0.7248390457       14.1918339364       19.6267628599
  C        -1.2047365422       13.4541028775       22.2615790277
  H        -3.2176129384       13.6200857643       21.3815653986
  H        -2.4057638442       15.0987438333       21.3512409591
  C         0.0975430078       14.1892163087       22.4062406094
  H        -1.5816323058       13.3420670334       23.2279826389
  H        -0.9574494626       12.4335160880       21.9447163154
  C         1.3165051604       13.4340019741       22.8356189995
  H         0.4141708889       14.6604817744       21.5114997104
  H        -0.0947432116       14.9971588758       23.1181456985
  C         1.6949409088       12.1215039805       22.0993891608
  C         0.9431649684       12.6412239026       24.0468133726
  C         2.6252108585       14.3453319978       23.0853709619
  C         1.6379451981       10.9588109012       22.8272398164
  C         2.1903083594       11.9209768095       20.8206064180
  C         1.1047287012       11.2563446142       24.0887601457
  C         0.3856313123       13.1572237524       25.2451181009
  H         2.9586436382       14.9626443229       22.1939796588
  H         2.4214806279       15.0412623011       23.8461225558
  C         3.8904589648       13.5186363016       23.6055628430
  S         2.1042732234        9.5412880643       21.9955365371
  C         2.4380686399       10.5918115875       20.6359343619
  H         2.3903445184       12.7463660598       20.2157248752
  C         0.7770359085       10.5937494085       25.2302339863
  H         0.1559425612       14.1797518587       25.2408201354
  C         0.1321035533       12.4323616094       26.3592406214
  H         4.2066133995       12.7516245790       22.8501453186
  H         3.5768548620       13.0642766396       24.5792388499
  C         5.1237381357       14.4481556025       23.7832435321
  C         2.8817693415        9.9089988463       19.3250695219
  C         0.2144967208       11.0917683214       26.3732705716
  H         0.9689248143        9.5124907560       25.1143169193
  C        -0.3775455250       12.7781360573       27.6048483148
  H         5.9040111934       13.9462404150       24.3894747388
  H         4.8203811759       15.1726721318       24.4724533214
  C         5.7412981457       15.0542193552       22.4647535769
  C         2.8034478177        8.5682904964       18.9753785670
  C         3.4676518541       10.7693667161       18.2191209415
  C        -0.3190800561       10.3582661592       27.6237954503
  C        -0.4880585629       11.6589670897       28.3866970066
  S        -0.5679675675       14.2830415381       28.3520359490
  H         6.4798315498       15.7729391171       22.9000478424
  H         4.9619378463       15.6254388466       21.8685210777
  C         6.4546314441       13.9445153390       21.6910352191
  N         2.3086452736        7.5105610985       19.7672601574
  C         3.1157865246        8.0578255749       17.6883225051
  C         3.5758323484       10.3380666670       16.9179337251
  H         3.6490697874       11.8077695727       18.4362891935
  C         0.8282025210        9.4470575878       28.1010289890
  C        -1.6373358596        9.6026376627       27.5180059011
  C        -0.8745334613       12.0521798064       29.7173132564
  C        -0.8907689054       13.4244084629       29.8526930694
  H         7.5205908815       14.2300005815       21.6249199508
  H         6.6024747969       12.9566652117       22.3267731471
  C         5.7246940082       13.5508443278       20.3796735864
  S         2.5177826583        6.1061615844       18.9944996250
  N         3.0258106767        6.7206888894       17.5352366789
  C         3.3910513765        8.9072084558       16.5936331292
  H         3.7489950886       11.1345078865       16.1943500481
  H         1.0885254574        8.7945131066       27.2407535754
  H         0.3870119044        8.7526476983       28.8345912246
  C         1.9932678903       10.2453838172       28.7542754078
  H        -1.3518301020        8.7001277210       26.8463787474
  H        -1.8272371295        9.2606854568       28.4854953565
  C        -2.7467412459       10.4594379107       27.0295315714
  H        -1.0778384774       11.2438614386       30.4348392084
  C        -1.1566246158       14.1554712972       31.1457592704
  H         4.8201567839       14.1367715900       20.1989931246
  H         5.4070343788       12.5259643554       20.3917235734
  C         6.7271227096       13.7967346292       19.2088085333
  C         3.5886683488        8.3429679561       15.3100301278
  H         2.4265016695       10.9461400386       28.0717871625
  H         1.5989398316       10.8319296317       29.6381328453
  C         3.1548408982        9.3770135824       29.1576608649
  H        -2.5580529022       10.7931042799       26.0135097228
  H        -2.8908628644       11.2593354604       27.8039124537
  C        -4.0122434678        9.6669491447       26.9508296812
  C        -1.1781211057       15.5819833442       31.2626840481
  C        -1.4795256961       13.3429692021       32.3411168832
  H         7.3265205686       14.7280005488       19.3766207210
  H         7.4879355259       13.0448955497       19.1811241067
  C         6.0924129485       13.8720991726       17.8146239338
  H         3.2683942949        7.3742361018       15.1621232295
  C         4.0243292104        8.8770611877       14.1179621223
  H         3.6520568109        8.9254991689       28.2726377696
  H         2.6563222252        8.6663590311       29.8981845543
  C         4.2351753683       10.1121610049       29.8898414672
  H        -3.9471948423        8.7894760427       26.4251113238
  H        -4.2365878524        9.4317655047       27.9786607351
  C        -5.1813460534       10.5976485001       26.5283615688
  N        -0.7969436997       16.5535420556       30.2816896416
  C        -1.6095037762       16.1601838363       32.4298923131
  C        -1.9299887320       13.9839761417       33.5185449040
  H        -1.3978163356       12.2379301636       32.3987993408
  H         5.0440648234       14.0972447287       17.7572158790
  H         6.6516944181       14.5405023437       17.1756162170
  H         6.2397707751       12.8375900520       17.4226551999
  S         4.3534325402       10.5344517360       13.7090929318
  C         4.2146864444        7.9265641995       12.9845965981
  H         4.1910691567       11.1770353082       29.6330382757
  H         4.0531973664       10.0607796148       30.9742803800
  C         5.6870456370        9.5929256621       29.6013615815
  H        -4.7056764489       11.4100569961       25.9851562541
  H        -5.6293253968       11.0624798556       27.4150905791
  C        -6.2741124917        9.8650317671       25.7367493554
  S        -1.0009903327       18.0031989046       30.8667804004
  N        -1.6518631303       17.5788683034       32.3064358983
  C        -1.9933971778       15.4654813739       33.5860631479
  H        -2.1297419951       13.3700685061       34.4150541851
  C         4.6897194583        9.9966660203       12.1155071013
  N         4.7251541469        8.6694670282       11.9569256699
  O         4.2211343233        6.7015440069       13.0359182031
  H         6.4128970596       10.4283006510       29.8037173158
  H         5.9147611539        9.2911315353       28.5579038201
  C         6.1486554179        8.4927980802       30.5710948098
  H        -5.7958502664        9.2259432823       24.9770353790
  H        -6.8649648094        9.3499755728       26.4401477272
  C        -7.1380764338       10.8648930909       24.9483862691
  C        -2.3572633105       16.2684496956       34.7739250093
  S         5.0985006426       11.0622703075       10.7154809321
  C         4.9099784228        8.0410724199       10.6578993562
  H         7.2309935846        8.5656643752       30.6392260170
  H         5.7747375688        8.6451401874       31.5776137395
  C         5.7737706535        7.0690716299       30.0824364578
  H        -6.7893010718       10.9010719613       23.8805294576
  H        -6.8896504933       11.8879133230       25.3507661894
  C        -8.5976641106       10.6674734500       25.0401948089
  H        -2.4110074856       17.3868222350       34.6170779020
  C        -2.7182643287       15.9431050841       36.0556226606
  H         5.6383720733        8.4534277821       10.0004164496
  H         5.1698459684        7.0191186692       10.8074904898
  C         3.5450335364        7.8459834958        9.9702348178
  H         5.7745437912        7.1842532475       29.0093429964
  H         4.7652294239        6.7954779535       30.3532250276
  C         6.8920360057        6.2049066721       30.6077877479
  H        -9.0692114134       11.2064197097       24.2622107192
  H        -8.9562487719        9.6293938253       24.9963648200
  C        -9.2511889903       11.2755126651       26.2806195358
  S        -3.1226225188       14.4480104909       36.6137537017
  C        -2.9835717475       17.0944781013       36.9654890202
  H         2.7412543182        7.5408745561       10.6653610898
  H         3.3089447082        8.8055104683        9.5286168853
  H         3.5567389654        7.0825106680        9.1422241489
  H         7.0800804146        6.4141571395       31.6662059780
  H         7.8407692628        6.3585084755       30.0963588393
  H         6.8792008800        5.1193274829       30.3567241530
  H        -9.2267937077       10.6366361347       27.1784637692
  H       -10.3180589447       11.4202892011       26.0468980837
  H        -8.9688169436       12.3048520745       26.5695777297
  C        -3.5156810188       15.1832065107       38.1285613584
  N        -3.3854562873       16.5491143688       38.1348674292
  O        -2.8747619184       18.2699725793       36.7645021927
  S        -4.0952977408       14.3676992518       39.5926352358
  C        -3.7558615386       17.3433357074       39.2958972043
  H        -3.8630234263       18.4237680929       39.0824932018
  H        -4.7961546492       17.0295384243       39.4602712038
  C        -2.7820341500       17.1193119373       40.4316908874
  H        -2.0031947694       16.4234101262       40.2505566001
  H        -2.3720382989       18.0574011113       40.7276078240
  H        -3.4255158997       16.7455451499       41.1851685624
