352
i=
  H         2.6685893145        1.3559648470       12.6277923176
  C         3.3767660253        2.1581312504       12.5701048230
  H         4.3112192284        1.6897853976       12.3419200932
  C         3.0412957413        3.1156806518       11.4165448342
  C         3.4057339748        2.8688060074       13.8542419330
  C         4.1053358154        3.2080247760       10.3768035927
  H         2.8580255416        4.1884188269       11.6764267092
  H         2.1367606394        2.7073109099       10.9646088507
  H         3.9432380508        2.3193848127       14.6252807909
  H         2.4341645500        3.0257728520       14.2430490956
  H         4.0040962610        3.7648781887       13.6886339290
  C         4.6093641838        1.8071619636        9.7413140241
  H         3.8314381602        3.9196894633        9.6119708995
  H         4.9179042324        3.8099280055       10.8894174167
  C         5.2869029900        1.9153947060        8.3294466449
  H         3.8439739030        1.0602833209        9.6689534243
  H         5.2708485543        1.3876580736       10.3984589562
  C         6.6005510075        2.7960697369        8.3819910946
  H         4.5366605274        2.2670688461        7.5885847605
  H         5.5139976282        0.8436333771        8.1186816589
  C         7.8575385540        2.0668346397        8.6973903102
  H         6.6222610444        3.2930583488        7.4092074550
  H         6.4315432380        3.5584034181        9.1384609875
  C         9.0283640479        2.9994118836        9.0029406759
  H         8.1613787854        1.4732999109        7.8005868780
  H         7.7452788815        1.3602079692        9.5527432043
  C         8.7793556583        4.3245046953        9.6966373898
  C         9.5565462539        3.7178444219        7.7982369417
  C        10.1531805894        2.2762004708        9.9103498868
  C         9.0717127503        5.4254829506        8.9342221186
  C         8.3469820026        4.6609670341       10.9492254436
  C         9.5708652721        5.0473623680        7.6996708732
  C        10.1295252934        3.0583810649        6.7175150573
  H         9.7961797232        1.9149060044       10.8227866897
  H        10.6018003528        1.4190562022        9.4501548998
  C        11.3802038024        3.2052851371       10.2256076785
  S         8.6985162097        6.8945208753        9.7288359478
  C         8.2194007601        6.0018995790       11.0914829081
  H         8.0396460434        3.8928999685       11.6936414454
  C        10.1054720764        5.6438042542        6.6198444740
  H        10.0750828970        2.0009986795        6.6987796446
  C        10.6266784865        3.6394012443        5.5829898217
  H        11.0479233908        4.1537124812       10.6656157768
  H        11.7847086829        3.5232167634        9.3076841802
  C        12.5205113144        2.6421729936       11.0293492217
  C         7.7673268157        6.7017160380       12.3303035072
  C        10.6636766178        4.9989179810        5.5176452867
  H        10.1407057689        6.7074036376        6.5246568871
  C        11.0522981578        3.2069825313        4.3696686433
  H        13.2818568363        3.4157861960       11.0003734278
  H        12.8787122869        1.7700409542       10.4799609978
  C        12.1513632676        2.3069384198       12.4581098837
  C         7.7850124758        8.0626306680       12.6242462263
  C         7.4163334776        5.8380148257       13.4992089013
  C        11.0961469118        5.5974902408        4.2240882166
  C        11.3338566310        4.2843777270        3.5529054261
  S        11.1575843407        1.6449807973        3.6201029239
  H        11.5355492368        3.1347652251       12.8040140399
  H        11.5030802067        1.4356176128       12.5769953001
  C        13.3678281808        2.0494911434       13.3548045929
  N         7.9488945934        9.0566074878       11.7244876118
  C         7.5950592178        8.5740552772       13.9375615214
  C         7.1232421698        6.3245697782       14.7577981783
  H         7.1809526980        4.8010832283       13.3423380803
  C        12.4231883017        6.4356651406        4.2452091045
  C         9.9742489336        6.4392733488        3.4777245830
  C        11.7137683612        3.8429708605        2.2727428527
  C        11.7383051131        2.4084770347        2.2158526355
  H        13.7354045610        3.0459673241       13.6154713900
  H        14.2456681605        1.6852699219       12.8492810495
  C        13.0263808039        1.1037871492       14.5441011830
  S         8.0164282285       10.4970161662       12.4919470421
  N         7.8491358376        9.9633373587       14.0346000457
  C         7.3030027885        7.7643571055       15.0632475319
  H         6.6197570341        5.7149152793       15.4561828231
  H        12.2978052880        7.2152632952        5.0922718079
  H        12.6007449141        6.9808788536        3.3170794764
  C        13.6381185962        5.6310768483        4.7188350434
  H         9.6839943078        7.2925989715        4.0882937885
  H        10.3494431297        6.7697637431        2.4895435038
  C         8.6837359854        5.6969744982        3.1567299274
  H        11.9753806128        4.5694861536        1.5253413568
  C        12.0923566970        1.6454079735        0.9972826052
  H        12.6972793906        0.1651297212       14.1188119125
  H        14.0110808522        0.8186706756       15.0388213994
  C        12.1992277269        1.8510132348       15.5637328241
  C         7.1168444152        8.4232239689       16.2696372303
  H        13.2772011769        4.9961527309        5.4983029191
  H        13.9656740442        4.9451203189        3.9306006096
  C        14.7867578115        6.5595278365        5.0756697946
  H         8.2441686504        5.5537560095        4.1006156134
  H         8.8974438350        4.7015063289        2.7455232248
  C         7.8721787542        6.4642569535        2.1146234892
  C        12.0257980920        0.2145192861        0.8503676509
  C        12.3216873338        2.4465194539       -0.2229667245
  H        11.3264271290        1.1570112553       15.7992317453
  H        11.7167134550        2.7438941009       15.1555065549
  C        12.7663146771        2.2301755793       16.8661519082
  H         7.4700772816        9.4164464505       16.2974482287
  C         6.6988357437        7.9880610493       17.4783552183
  H        14.4739456047        7.1661771523        5.9439892815
  H        15.2591835125        7.1228413133        4.2603194078
  C        15.8766107744        5.6815273308        5.6397338815
  H         7.5790282376        7.4272793928        2.5654554546
  H         8.5337239870        6.6995818631        1.3217248017
  C         6.6731463877        5.7728305107        1.4922463117
  N        11.7607183809       -0.6860388344        1.9535590385
  C        12.2667337191       -0.3260590076       -0.3697494519
  C        12.5559452241        1.8233591327       -1.4541228267
  H        12.2000949892        3.4716199947       -0.2016571586
  H        13.6447393198        2.8422747090       16.7571859102
  H        13.0075495735        1.2926835474       17.4588969425
  H        12.0440947752        2.8029808161       17.5311731809
  S         6.3953350321        6.3796760768       17.9655512797
  C         6.5595173364        9.0439683927       18.5159456817
  H        15.4731372269        4.7506636771        6.1009361035
  H        16.3814065827        5.3470275745        4.7362782567
  C        16.8086981346        6.6137253761        6.5177090888
  H         6.3788050698        4.7895195541        2.0024568291
  H         6.9416852322        5.5132217035        0.4905238196
  C         5.3892857100        6.5743411516        1.5291377349
  S        11.7677450095       -2.1764917899        1.2236804120
  N        12.2136250155       -1.7474293426       -0.3018167486
  C        12.5486927996        0.3425282039       -1.5988756281
  H        12.7339452095        2.3822862053       -2.3266310397
  C         6.1327874637        7.0607106107       19.5922011734
  N         6.2421293018        8.4275916089       19.6850761323
  O         6.7056439354       10.2384976345       18.3032685012
  H        17.2614164694        7.3034156276        5.8643667751
  H        16.2226029674        7.2714359735        7.2196888979
  C        17.8308195147        5.7806776032        7.1929581172
  H         4.5741518250        5.9717581508        1.2672944246
  H         5.2867269973        6.8770490542        2.5452070536
  C         5.3364047094        7.7301279443        0.5769817917
  C        12.8805335058       -0.3668567676       -2.8476921268
  S         5.8482745078        6.0680400843       20.9896932668
  C         6.3654662731        9.1487413504       20.9372873435
  H        17.3997771868        5.4987530387        8.1039726455
  H        18.0539688653        4.9586325651        6.5758824311
  C        19.1741632322        6.4576286479        7.2280744758
  H         5.3925763070        7.4401009944       -0.4628381708
  H         6.2006153220        8.3382224149        0.8351021142
  C         3.9504764047        8.3856423851        0.7572017796
  H        12.5162614778       -1.3858084332       -2.7479055329
  C        13.2727974758        0.0602985697       -4.0854193594
  H         5.8473380462        8.7215527741       21.7577326581
  H         5.8338457999       10.0720855074       20.7475917852
  C         7.8742725838        9.2362110231       21.4334822379
  H        19.6722511078        6.0199983525        8.1150807344
  H        19.0596314907        7.4641938811        7.3787488776
  C        20.2170541056        6.1537492108        6.0980828139
  H         3.2282455643        8.0840444489       -0.0699553731
  H         3.4862898388        8.1087466271        1.7122519198
  C         4.0704164196        9.9200581447        0.7595407776
  S        13.7872597283        1.6495000558       -4.5648395394
  C        13.3492037323       -0.9385636851       -5.1214124235
  H         8.4463953964        8.3525360653       21.3283867867
  H         7.9148437585        9.5525449890       22.5046819500
  H         8.4949308902        9.9768640525       20.9501263471
  H        20.8808286047        5.3439415966        6.5050511891
  H        19.7133395050        5.8256253984        5.1587523334
  H        20.7736514424        7.0327946691        5.8062611072
  H         4.6708544336       10.3227173939       -0.0169931586
  H         3.0074031605       10.2180671936        0.6646681507
  H         4.4463551274       10.4189972568        1.6582219790
  C        14.0151749534        0.9325997984       -6.1929755205
  N        13.8080699195       -0.3677078248       -6.1967907650
  O        13.0035564917       -2.1066356703       -5.0922430268
  S        14.5960224285        1.7972910656       -7.5891003421
  C        13.7985267237       -1.1683810666       -7.4610946041
  H        14.1339079222       -2.2255113465       -7.3409075032
  H        14.5047831160       -0.7850267931       -8.2027679536
  C        12.4274474275       -1.1102372195       -8.0937652686
  H        11.8092572071       -1.7282832893       -7.5470047320
  H        12.5628484488       -1.5169018106       -9.1677216462
  H        12.1012166349       -0.0611615672       -8.1196669146
  H        -3.5994703238       14.6076456761       16.4541994706
  C        -3.0904596928       13.6581442220       16.3082438772
  H        -3.8804035493       12.9596738156       16.4347639931
  C        -2.0793272571       13.4164489198       17.4365631650
  C        -2.5894674223       13.3111416414       14.8566917631
  C        -2.4880564089       13.8366611310       18.8321668162
  H        -1.8960154761       12.3689669214       17.5350971356
  H        -1.1026647575       13.8843744793       17.3289019274
  H        -1.7230330964       13.9165707086       14.7798131952
  H        -2.3295653601       12.2993013040       14.8584809657
  H        -3.3306956870       13.5404585466       14.0793341335
  C        -1.9785397771       12.7974643181       19.9318992692
  H        -3.5564122822       13.8504188336       19.0647667227
  H        -2.0765826761       14.7826750839       19.0789255784
  C        -2.2962279010       13.2548743598       21.3882972732
  H        -2.5155352369       11.8700612656       19.7394773751
  H        -0.9074389064       12.6635551385       19.7619954923
  C        -1.1828579831       12.7952046525       22.2694641743
  H        -3.2451068177       12.8367932166       21.7309413537
  H        -2.3946688325       14.3507494916       21.4475112584
  C        -0.0353220226       13.7796119546       22.2940851586
  H        -1.6507992744       12.6459798175       23.2242082190
  H        -0.8439196810       11.7693993592       21.9205137019
  C         1.2766085874       13.2353943407       23.0614991965
  H         0.1865687783       14.1319562236       21.3184223794
  H        -0.1944154277       14.6844090895       22.8195349378
  C         1.7619264351       11.9878655450       22.4026880325
  C         0.9667121000       12.4772881740       24.3250058696
  C         2.4652650585       14.2501303677       23.1730620148
  C         1.5353570470       10.8435886398       23.1867490829
  C         2.3130845957       11.6029707746       21.1353696057
  C         1.0200526650       11.1370869195       24.4470663866
  C         0.4633673141       13.0882487871       25.4705260746
  H         2.7294678719       14.6658666076       22.1867998431
  H         2.1153599960       15.0387306593       23.8022352931
  C         3.6988904428       13.6225900986       23.7077820208
  S         2.0869403282        9.3260561563       22.4796552694
  C         2.5526844342       10.2626079786       21.0145356022
  H         2.5204150804       12.3697884983       20.4027748859
  C         0.5618906093       10.4965760760       25.5371239376
  H         0.5029201746       14.1596819454       25.5540751939
  C         0.0504975490       12.4448220605       26.5804222149
  H         4.0726651625       12.8816733642       23.0056054403
  H         3.6164488037       13.0459586845       24.5429996519
  C         4.9558421298       14.5021718400       24.0738522603
  C         2.9382282129        9.6257674609       19.6938579720
  C         0.0491812745       11.0706812291       26.7185203379
  H         0.6074817043        9.4144384677       25.5144434958
  C        -0.4550153255       12.7725549261       27.8305873823
  H         5.5751618969       14.0830124980       24.7988543795
  H         4.6322171688       15.3355560353       24.6605246203
  C         5.7335895482       14.8800578510       22.7962887391
  C         2.8429059818        8.2461937861       19.3749434302
  C         3.2621550735       10.5598491726       18.5652828967
  C        -0.4310631100       10.3746770348       27.9313910870
  C        -0.7147419613       11.7023259527       28.6609858840
  S        -0.7725538202       14.2717168255       28.4712469141
  H         6.5681632608       15.5683182363       22.9721908987
  H         5.0534295098       15.3355503648       22.0229812101
  C         6.3291461280       13.6907096517       22.0321787559
  N         2.6792205074        7.2173210144       20.2809561413
  C         3.0082161010        7.8180093621       18.0854046935
  C         3.5565640972       10.0532388074       17.2666777107
  H         3.4559407375       11.6232782971       18.6800196237
  C         0.7196032747        9.6111734014       28.5747678814
  C        -1.6564633929        9.5107514066       27.7997884039
  C        -1.2303595151       12.1523595619       29.9163349414
  C        -1.2211345735       13.5475278888       29.9683880807
  H         7.3760897812       13.9688369392       21.8110281034
  H         6.4447658272       12.8276395269       22.6250180087
  C         5.7175084469       13.5232786995       20.6467134784
  S         2.6631564195        5.8747357943       19.4030097306
  N         2.9493662580        6.4073369572       17.9204642427
  C         3.3127059276        8.5924694991       16.9330670209
  H         3.8572648345       10.7200700554       16.5009114864
  H         0.9464842531        8.7279333113       27.9595399435
  H         0.4012245718        9.1675210582       29.4841328371
  C         1.9772428994       10.4038701487       28.8903835650
  H        -1.3236296719        8.6025454934       27.2712578456
  H        -2.0844166667        9.2772098682       28.8078944807
  C        -2.7659235793       10.2186319716       26.9810548218
  H        -1.4379758457       11.4518331008       30.7245525069
  C        -1.4321259350       14.3583132613       31.1948822205
  H         4.9761508238       14.2674302634       20.3693710930
  H         5.1936115315       12.5975415353       20.7450093830
  C         6.8429729856       13.6129280760       19.5908645854
  C         3.6480643049        7.9055606614       15.7160655264
  H         2.3440358005       10.9449561142       28.0287405122
  H         1.8037096855       11.2050020103       29.6347859553
  C         3.0776909561        9.4824044508       29.4661565520
  H        -2.4467004063       10.0748652829       25.9388968566
  H        -2.8467752816       11.3738844048       27.0940666435
  C        -4.0702288071        9.5846736159       27.1454154735
  C        -1.3706030711       15.7471719498       31.3254191731
  C        -1.4830585573       13.6567375088       32.5029929646
  H         7.3001133845       14.5492754290       19.5812024144
  H         7.5296839556       12.8055146629       19.8088836062
  C         6.3967863536       13.5043635356       18.1839749351
  H         3.6248863771        6.8159702306       15.7592931796
  C         4.0389936629        8.3374454140       14.4891234527
  H         3.2747967636        8.8259664961       28.6315408482
  H         2.7550410491        8.8202348650       30.2408716319
  C         4.4060077651       10.1348182337       29.8324485879
  H        -4.1050614262        8.7568061127       26.4894982755
  H        -4.2835667415        9.3623683631       28.1638959013
  C        -5.1748821437       10.5049153451       26.5224451623
  N        -1.2146133152       16.6147649922       30.2303176308
  C        -1.4771925199       16.4275055384       32.5273869437
  C        -1.6161329720       14.3238589912       33.7062005620
  H        -1.6932543470       12.6190207177       32.4515816529
  H         7.0517722105       13.1079653891       17.4208313832
  H         5.5483844773       12.7558544858       18.2072417336
  H         6.0473756877       14.4985615776       17.9034647026
  S         4.2315919898        9.9825254356       13.9002628288
  C         4.1041629374        7.3613401210       13.3588203682
  H         4.6343909592       11.0095199012       29.1587066576
  H         4.4329544583       10.5913169343       30.8624216396
  C         5.4960581217        9.0904841090       29.4845489159
  H        -4.7078691782       11.0367867620       25.7385756778
  H        -5.5751665327       11.2308941795       27.2143394495
  C        -6.3016997434        9.6409690013       25.9847721129
  S        -1.1349440700       18.1550768467       30.7100094649
  N        -1.4521801886       17.8421676434       32.2970127728
  C        -1.7333287311       15.8080054543       33.7243910170
  H        -1.8530603392       13.6982001834       34.5334366564
  C         4.5194701290        9.3182892685       12.2654905340
  N         4.4041258880        8.0159352796       12.2197456235
  O         3.8106509950        6.1906268779       13.4892016668
  H         6.4691806830        9.5792341823       29.2768582339
  H         5.3263052914        8.4372495865       28.6414492000
  C         5.8211526809        8.1224017320       30.7169240960
  H        -5.8616052279        8.8934085356       25.3764426932
  H        -6.9093023238        9.1334218206       26.7225600711
  C        -7.2577724823       10.5035064344       25.1188072203
  C        -1.9883995098       16.5247292232       34.9486626684
  S         5.0409862010       10.2712598940       10.8699192982
  C         4.6193529487        7.2579473964       11.0073818474
  H         6.3487437136        8.7013447513       31.4363962664
  H         4.9369165714        7.6373357618       31.1486924437
  C         6.6636370198        6.8846881801       30.2537808105
  H        -7.0087551491       10.5631303639       24.0609775578
  H        -7.3539238390       11.5043071617       25.5331425753
  C        -8.6943026643        9.8760069961       25.0010599952
  H        -1.8803573898       17.5857643687       34.8531964176
  C        -2.3713920850       16.0732243133       36.1881506850
  H         5.5027414732        7.5023887318       10.4015354823
  H         4.7602238451        6.2101998492       11.2757740700
  C         3.3707755458        7.1956846003       10.2414349819
  H         7.6032696175        7.2800626595       29.8214784318
  H         6.1712796579        6.3051689837       29.4414517750
  C         7.0204981913        5.9632643510       31.4240702457
  H        -9.1849422568       10.3433880819       24.0511375171
  H        -8.7312861321        8.8255355936       24.6327865659
  C        -9.4721458534       10.2382705880       26.2802982529
  S        -2.7902532792       14.4922936941       36.7229120794
  C        -2.6412109583       17.0944394147       37.1770654332
  H         3.5940266650        6.8984929003        9.1755344254
  H         2.7999129383        6.3573983677       10.6312756827
  H         2.7609982557        8.1114314710       10.3138558274
  H         7.9105232081        5.5272692952       31.0815175542
  H         6.1777627142        5.2619699861       31.6041237709
  H         7.2995420304        6.5308186193       32.2912555090
  H        -9.9040962045        9.2740311147       26.5840221423
  H       -10.3420478003       10.9358427155       26.1698951869
  H        -8.8054393742       10.5494566597       27.0571440049
  C        -3.2163289017       15.2678940848       38.2445986924
  N        -3.2034913086       16.6171438600       38.2484473250
  O        -2.4771508846       18.3494428014       36.9880934575
  S        -4.0095357153       14.4702827324       39.6408505036
  C        -3.6742838585       17.4519715198       39.3231324222
  H        -4.0025211981       18.3832954318       38.8822333247
  H        -4.5312321211       17.0320706990       39.8336244815
  C        -2.5260869318       17.7249349197       40.3213019320
  H        -2.6823050992       18.6296969134       40.8610750964
  H        -2.4253709998       16.9916899617       41.0568488032
  H        -1.5877882077       17.7016451905       39.8758151243
