352
i=
  H         4.4737473361        2.2472833774       12.2834934393
  C         3.6149608169        2.8764577969       12.5171643673
  H         4.1728832754        3.7599564187       12.7275476109
  C         2.6879887616        2.9127243615       11.2850837569
  C         2.9766620229        2.4395619119       13.8633486200
  C         3.3799411436        3.1367836593       10.0123127827
  H         1.9198578751        3.5998092024       11.2378864032
  H         1.9544938262        2.0856754320       11.2983551107
  H         2.0152786834        1.8956549618       13.6285174457
  H         2.7684418975        3.3054866052       14.5402904907
  H         3.6625457059        1.9582390600       14.5375872874
  C         4.1650388943        1.8060953019        9.5914689811
  H         2.7050526481        3.3273277294        9.2649024130
  H         4.1422688221        3.8789930548       10.0886246692
  C         4.9603091783        2.0098758194        8.2825034101
  H         3.3187449726        1.1506952975        9.3746146506
  H         4.8437097243        1.4888798648       10.3880944910
  C         6.3313523168        2.7286238916        8.5620923344
  H         4.3944906869        2.5046588100        7.4274769025
  H         5.2032191764        0.9991408303        7.9014665582
  C         7.6317299890        1.9974945480        9.1019604512
  H         6.3345004584        3.4266373304        7.7550949017
  H         6.0741204147        3.5301361508        9.4393784027
  C         8.8391409919        2.9050543043        9.2757480498
  H         7.8347806762        1.0847821424        8.3910212968
  H         7.3984528944        1.6634751256       10.1341440656
  C         8.6086008303        4.2789247482       10.0088271532
  C         9.3732703438        3.5443307745        8.0442594817
  C        10.0100332634        2.1342544081       10.0226495642
  C         8.9538879482        5.3303671079        9.2135302846
  C         8.2072625519        4.7468881894       11.2712359309
  C         9.4286775254        4.9702090199        7.9569303421
  C         9.9660742654        2.8329079816        6.9166129313
  H         9.6154454621        1.9494869353       11.0578522723
  H        10.2108829791        1.1862309414        9.6493965474
  C        11.4051037483        2.8723303802       10.2508744063
  S         8.7357473954        6.9041925932        9.9354645256
  C         8.2429505889        6.1430882456       11.3230913637
  H         7.9623886783        3.8942831236       11.8867541096
  C         9.8735043375        5.5559629695        6.8052875638
  H         9.8976965282        1.7410007777        6.9858403699
  C        10.3492234152        3.4894039349        5.7427622467
  H        11.3145711526        3.8822461188       10.5019293133
  H        11.8046801835        2.9055297890        9.3590033464
  C        12.3295509542        2.1186372929       11.1815949861
  C         7.9083305164        6.8716685300       12.5933570938
  C        10.2855127311        4.8365745384        5.6468322827
  H         9.7590454297        6.5782706500        6.7150569595
  C        10.6895226024        3.1085246977        4.4733256012
  H        13.2362870881        2.8181910506       11.3678533458
  H        12.5558157757        1.1422632627       10.6846149832
  C        11.7368591182        1.7090705485       12.6072669182
  C         7.6750782452        8.1961937311       12.7449066280
  C         7.5762716815        6.0509070674       13.7711085172
  C        10.7235771807        5.5021863487        4.3532074612
  C        10.9259804112        4.1616914551        3.6351465859
  S        10.8247760350        1.5831469441        3.6870476605
  H        11.0717667010        2.5766505990       12.8780349752
  H        11.0173643458        0.7805984825       12.6144606555
  C        12.8398113459        1.5471597805       13.6808415240
  N         7.9486491952        9.1998817773       11.7713947368
  C         7.4557409701        8.7880843322       14.0055669384
  C         7.1567638346        6.6786369926       15.0214001934
  H         7.5615057911        4.9578303579       13.8351592380
  C        12.0505878346        6.2736974289        4.4880900073
  C         9.5355443637        6.3281292131        3.7058383393
  C        11.3849862847        3.6436757264        2.3425585211
  C        11.3420965584        2.3015095292        2.2338372707
  H        13.8557799530        1.9933402646       13.4241580923
  H        13.1730392831        0.4704853004       13.7949626817
  C        12.3029180755        2.2252035074       14.9798580332
  S         7.9063317981       10.6178873448       12.5046858825
  N         7.3185698853       10.1936855702       13.9128153691
  C         7.1621862632        8.1927992690       15.1577327160
  H         7.0035789937        6.0277584895       15.9222000688
  H        11.8410172729        7.1772549646        5.0379303624
  H        12.4502684179        6.6753243596        3.4400860784
  C        13.1857886669        5.4556211384        5.1261770429
  H         9.1289490566        7.0094259568        4.5683064938
  H         9.9323809981        7.0772814649        2.9359433660
  C         8.4758539903        5.4521169940        2.9944815307
  H        11.6861127967        4.2883456747        1.5566968466
  C        11.6499393451        1.4995977285        1.0517078895
  H        12.0597390697        3.2633055473       14.6774239520
  H        11.4011333000        1.7883703503       15.3784449623
  C        13.3993266480        2.2765641677       16.0593049778
  C         6.8508418473        8.8547450661       16.3606103167
  H        13.1329864206        4.9713890617        6.2748601475
  H        13.3361696187        4.4850009303        4.4764723116
  C        14.6060646260        6.0805981472        5.2460526581
  H         8.0333575239        4.7240562036        3.7436283690
  H         8.9559654942        4.7391695868        2.3251713065
  C         7.4434215954        6.3001454620        2.2999715312
  C        11.6941750666        0.0809117691        0.8376213887
  C        11.9681989880        2.2850461544       -0.1608199108
  H        14.3721836102        2.7495010585       15.6691413189
  H        13.6864613190        1.1557583069       16.2315767963
  C        13.0268758697        2.8653136622       17.4192476529
  H         6.8361360012        9.9754155021       16.4094306021
  C         6.4253328720        8.3275302703       17.6257810001
  H        14.5353209352        6.9786206993        5.7808326157
  H        14.8671837593        6.4017321923        4.2424524136
  C        15.6310073720        5.1883791886        5.8638876030
  H         6.8845650400        6.7670563843        3.1218388146
  H         7.9264006439        7.0070018851        1.5935883470
  C         6.4531737270        5.4546789738        1.4379983563
  N        11.2349296905       -0.7615007919        1.8556033507
  C        12.0301048601       -0.5095461805       -0.3651236445
  C        12.2320686772        1.6862661128       -1.3769190746
  H        11.9886079966        3.3492982359       -0.1682972783
  H        13.9698463936        2.9818831284       17.9904127346
  H        12.4647242465        2.1311332029       18.0464379293
  H        12.4208558607        3.7736874825       17.2191556247
  S         6.1441863995        6.7024472840       18.0743230118
  C         6.2099689515        9.3150974268       18.7275075956
  H        15.2862719480        4.6443527744        6.7032527449
  H        15.9715748635        4.5085431342        5.2168544903
  C        16.8981895692        5.9476279016        6.2174707979
  H         6.4955396371        4.5158162850        2.1696290778
  H         6.9865394143        5.4604124174        0.3408113137
  C         5.0079609412        5.9479131180        1.4977512490
  S        11.4913635124       -2.2757335699        1.2170317729
  N        12.0606619650       -1.8995640486       -0.2273625615
  C        12.3494163364        0.1395400855       -1.5292316548
  H        12.6183817886        2.3657708679       -2.1428800260
  C         6.0177147565        7.2223224376       19.7532487356
  N         5.7857105359        8.6249323598       19.7796511779
  O         6.3720717287       10.5012186262       18.7065763843
  H        17.3586629486        6.3866269290        5.3314711118
  H        16.7087495546        6.8604279063        6.8701204599
  C        18.0590615286        5.0974814025        6.8190458296
  H         4.3113757247        5.4194569062        0.9916971134
  H         4.6705196904        5.7287427717        2.4488042170
  C         4.8151871652        7.5157413329        1.4125586640
  C        12.7612840142       -0.3875786322       -2.6971787666
  S         5.6524503984        6.2704219265       21.1923034330
  C         5.7921194579        9.3159897291       21.0652737730
  H        17.5869026640        4.5493987110        7.7089446300
  H        18.3180347625        4.2583488429        6.0817355255
  C        19.3223138921        5.8212876936        7.0687524637
  H         4.2092190790        7.7312755506        0.5462103973
  H         5.7915018546        7.8543169201        1.1732338398
  C         4.1961679405        8.0930810766        2.6831785944
  H        12.3040147229       -1.3486314638       -2.7353650129
  C        13.2983022905        0.0951314664       -3.8296759534
  H         5.1228495484        8.9945302563       21.7782532330
  H         5.3618748230       10.2498774144       20.8585279620
  C         7.1909947614        9.3707221312       21.7015997271
  H        19.9197703859        5.2049243812        7.6263187943
  H        19.3697320195        6.6566593297        7.5714927685
  C        20.0523089686        5.9380965444        5.7561574754
  H         3.4311440468        7.3132931475        3.0511517194
  H         4.9243625034        8.2119074269        3.5240311507
  C         3.6106066628        9.4206288738        2.3098847350
  S        13.8342433287        1.6977670054       -4.2143719516
  C        13.5619832077       -0.8439251281       -4.9306948653
  H         7.7925422465        8.5504615998       21.4150976225
  H         7.2146008902        9.3975114777       22.8529381693
  H         7.6932407664       10.1107504536       21.2919219576
  H        20.8785356907        6.6077734931        5.8181218594
  H        20.3460969939        4.9352259232        5.5022731758
  H        19.5190957554        6.4269415981        4.9303877469
  H         3.2593748995        9.9792489960        3.0795722217
  H         4.2287267817       10.0522544243        1.7685486201
  H         2.7764670805        9.1522017354        1.7880229247
  C        14.4606319659        1.1546878786       -5.7037117289
  N        14.2696891638       -0.2246704961       -5.9067060673
  O        13.1584030643       -2.0334124438       -4.9901326541
  S        15.2279213121        2.1180278143       -6.9346002734
  C        14.4610198963       -0.9287019741       -7.2093539654
  H        14.6792912069       -1.8959060072       -6.9409199684
  H        15.1788975240       -0.4828737102       -7.7913251935
  C        13.2613182605       -0.8055520230       -8.2025778805
  H        12.3371774685       -1.2048033792       -7.6534118005
  H        13.4626689553       -1.3173186886       -9.1925211448
  H        13.0287197112        0.2597233209       -8.4410013713
  H        -3.7666447487       14.9966179897       16.2168123174
  C        -3.1364647631       14.1870297612       16.4761843525
  H        -3.6440618368       13.2355913545       16.5967443908
  C        -2.1866512286       14.4497023675       17.5891712952
  C        -2.2843910375       13.9492024417       15.1084282290
  C        -2.8390191873       13.9628173171       18.9661235753
  H        -1.1974971734       13.8933567039       17.6028485651
  H        -2.0784185847       15.6161826626       17.8174851008
  H        -3.0883175581       13.8192790620       14.4000721185
  H        -1.5868478241       14.7852172115       14.9438946356
  H        -1.7384122978       13.0004689504       15.2420852248
  C        -1.7450016523       13.8453473791       20.0143955249
  H        -3.3589750578       12.9787001359       18.8064552446
  H        -3.5927368467       14.7129244836       19.3343822009
  C        -2.2895114077       13.7241012420       21.4444842006
  H        -1.1613482877       12.9013814705       19.7155970813
  H        -1.0040285049       14.7529040556       19.8872926086
  C        -1.3086145935       12.9763944973       22.3824038130
  H        -3.2574602452       13.1386590446       21.5654747871
  H        -2.4228496148       14.7185042107       21.9221483758
  C         0.0042531200       13.7762813063       22.7260570735
  H        -1.7788368948       12.7772968890       23.3656618603
  H        -0.9209341056       11.9945968501       21.9527744524
  C         1.2184243516       13.0499403010       23.4240276884
  H         0.2579465551       13.9337498123       21.7127370524
  H        -0.3623466974       14.7275221297       23.2459411122
  C         1.5623462593       11.7582770906       22.7013628880
  C         0.7244319326       12.2833590551       24.5912969235
  C         2.5114994161       13.9487466540       23.6013892958
  C         1.3393137209       10.5767641090       23.4341802567
  C         2.0887641409       11.4626693744       21.4446605668
  C         0.8600478243       10.9461464388       24.6367913644
  C         0.1089433318       12.9853366228       25.6819795104
  H         2.6342193019       14.1656313730       22.5528650915
  H         2.3147701128       14.8525554601       24.2645886399
  C         3.7871873964       13.2299200238       24.1388480118
  S         1.6454666596        9.1194744759       22.5868528582
  C         2.0712170151       10.1419098330       21.2173116891
  H         2.2218137603       12.2453463038       20.7720650449
  C         0.5156763463       10.2674870567       25.7636589260
  H        -0.1382069652       14.0781913290       25.6575903205
  C        -0.2567012028       12.2850105524       26.8201244400
  H         4.0057203252       12.2101275739       23.7730854721
  H         3.2397826846       13.0842628563       25.0876236458
  C         4.9269897738       14.2060356872       24.1389114698
  C         2.3948420653        9.4115652517       19.9691864012
  C        -0.0526088010       10.9081186976       26.8866490179
  H         0.5174135817        9.2035836728       25.7987447318
  C        -0.7630654194       12.5908358691       28.0581490293
  H         5.7373811619       13.9730153202       24.9247434212
  H         4.5294474294       15.1368560124       24.4865933694
  C         5.6806246801       14.4504361022       22.8943335399
  C         2.3989011374        8.0875989871       19.6387768707
  C         2.7401948502       10.3042978677       18.7697393281
  C        -0.5690260119       10.2229316895       28.1025504845
  C        -0.9743218064       11.4456602463       28.7878203923
  S        -1.0832095185       14.1412045188       28.7194939520
  H         6.2580560230       15.4127357314       22.9567000725
  H         5.0689883823       14.6400766355       21.9882086875
  C         6.5206072874       13.2404691058       22.3825179401
  N         2.0360487096        7.0871720047       20.5384088217
  C         2.7343486348        7.5933921351       18.3644861527
  C         3.0481414919        9.8327999185       17.4728194024
  H         2.9983664720       11.3617826226       18.9541884903
  C         0.5738941713        9.3748839733       28.8760226327
  C        -1.8385461740        9.3546970648       27.7762828947
  C        -1.3967002335       11.9062308822       30.1006338670
  C        -1.4325638553       13.2862769379       30.2285828589
  H         7.1188145718       13.0186986024       23.2905069835
  H         5.8071590818       12.4285973054       22.3151515568
  C         7.2933382757       13.4903000973       21.1031862220
  S         2.2342453151        5.6971682861       19.7271691754
  N         2.6399271957        6.2279018961       18.2885455893
  C         3.0642315163        8.3456125282       17.2297532174
  H         3.3174917598       10.5672762922       16.8019300540
  H         1.1369168425        8.8393952919       28.1839156454
  H         0.0430525707        8.7015033560       29.4729885927
  C         1.5414719442       10.2201631995       29.7600710930
  H        -1.5612050519        8.4570971372       27.1526076088
  H        -2.3219750251        8.9278193511       28.7529048265
  C        -2.9452004717       10.1722619638       27.0314722334
  H        -1.5760526566       11.0900999858       30.8119343430
  C        -1.6991000916       14.0276688522       31.4349533252
  H         7.7046063267       12.5743666791       20.8767546607
  H         7.8780096176       14.4187484654       21.0977057746
  C         6.3144175330       13.7330919780       19.8275307133
  C         3.4419565854        7.7998391812       16.0454680191
  H         1.6872690917       11.1762013306       29.1215489105
  H         0.8485593953       10.5630355454       30.5983368225
  C         2.7096398991        9.5118409252       30.2015683364
  H        -2.6154989132       10.5071666493       25.9926342516
  H        -3.1179705058       11.1165394932       27.5338461919
  C        -4.3162071669        9.4341626579       26.8866378776
  C        -1.6950457426       15.3797474929       31.6518980864
  C        -1.8012318314       13.2077709108       32.7390083284
  H         5.5693811470       12.9386259026       19.8591191208
  H         5.9472387787       14.7119109699       20.0599438860
  C         6.8886745680       13.7783376264       18.4089818123
  H         3.5919080350        6.7326897706       16.1367026149
  C         3.7862237985        8.2677667846       14.7935365761
  H         3.2095769248        8.8750656419       29.4079380296
  H         2.4411489767        8.7215717028       30.9933816774
  C         3.7972125729       10.3064220876       30.8512659993
  H        -4.1414605811        8.4907307675       26.2033353024
  H        -4.5351669148        9.0183258912       27.9504177814
  C        -5.4272877980       10.3829988462       26.4943276301
  N        -1.4486920171       16.3011679018       30.6788997084
  C        -1.9516129239       15.9110170779       32.8910086494
  C        -2.0468630596       13.7785526419       34.0041171322
  H        -1.4791840907       12.0722729164       32.5742517967
  H         6.2214280800       14.0978796555       17.7202539639
  H         7.7294636034       14.5469121167       18.3651589606
  H         7.2503057518       12.7951064189       18.0942119430
  S         3.8921597583        9.8976130287       14.2640070252
  C         3.9825316802        7.1839446232       13.7461713610
  H         3.9577739539       11.1487259042       30.2261477580
  H         3.4463011323       10.5735511018       31.8041829030
  C         5.1285332046        9.5872650861       30.8765470062
  H        -5.0915551704       11.0501034030       25.6261981122
  H        -5.7007025488       11.0856579382       27.3218023091
  C        -6.7856727353        9.5674542713       26.1302978115
  S        -1.7298272081       17.7474062656       31.3197302341
  N        -2.1121815673       17.3217119207       32.8192299853
  C        -2.2473282405       15.3128066843       34.0549486009
  H        -1.9862967251       13.2284345348       34.9253516426
  C         4.1843869709        9.1571493582       12.6570653717
  N         4.3027822024        7.8039716502       12.6401504598
  O         3.6755005647        6.0266457288       14.0248535643
  H         5.6910385979       10.2222370797       31.2601564616
  H         5.4194305752        9.4463636081       29.9807968111
  C         5.0769100579        8.3595242911       31.7013330592
  H        -6.4095221319        8.8078567420       25.3775282474
  H        -6.9216271325        9.0015848591       27.0528377347
  C        -7.9004917385       10.3241930989       25.6262698961
  C        -2.6028238383       15.9868553721       35.2528552759
  S         4.6381487527       10.0709364391       11.2493368101
  C         4.4065453032        7.0814473192       11.2875917407
  H         5.8520480753        8.4991144775       32.5591307064
  H         4.2374905945        8.0576140639       32.1782079183
  C         5.7086425613        7.1624360779       30.8672408736
  H        -7.8481106890       10.3239309164       24.5649416945
  H        -8.0615418258       11.3266789121       26.2063647970
  C        -9.2641620692        9.6664910957       25.7526360281
  H        -2.4430899899       17.0660406884       35.1172521359
  C        -3.1696130718       15.5682127057       36.4535097985
  H         5.0790896892        7.4719732067       10.5188929403
  H         5.0867982331        6.1816631640       11.4703294239
  C         2.9933334222        6.6493089267       10.7340198179
  H         6.6607068841        7.5482296296       30.5351036433
  H         5.0963254514        7.0204360876       29.9478164471
  C         5.8468748472        5.8280708473       31.7157064371
  H        -9.7066084668       10.1610066719       24.8437014055
  H        -9.1346552263        8.6391227206       25.6494722759
  C        -9.9463311283       10.0897061818       26.9370258607
  S        -3.6221237668       13.9573715361       36.8159059908
  C        -3.4511922620       16.5512583418       37.5309655060
  H         2.4734888952        6.0713023663       11.3653388280
  H         2.3559633521        7.4685756296       10.5815345675
  H         3.0667478934        6.1956527272        9.7348736464
  H         4.9828675013        5.2831176809       31.6431180376
  H         5.9224675024        5.9311682999       32.7197196090
  H         6.6135826876        5.1329591691       31.3787459721
  H        -9.3702195077        9.9499637360       27.8649881640
  H       -10.8758335259        9.4875405891       27.0004643102
  H       -10.2388952125       11.1683529159       27.0349698030
  C        -4.1658750260       14.5151522386       38.3830237322
  N        -4.0558529254       15.9411032783       38.5828823646
  O        -3.2090481757       17.7358653318       37.4301580567
  S        -5.1138095501       13.6696009074       39.6015124802
  C        -4.2726112493       16.5453699564       39.9377325595
  H        -4.2394637891       17.6167285341       39.5792638510
  H        -5.2790271592       16.5558993242       40.4526876661
  C        -3.0516950423       16.1910191485       40.7555709465
  H        -2.8998474596       15.1818495104       40.9953164743
  H        -2.3404219874       16.4620954936       40.1791826928
  H        -2.9783565800       16.7340513989       41.6661088668
