352
i=
  H         2.5052848396        3.4368904295       12.1508936159
  C         2.8835704926        2.4938270303       12.4777456461
  H         2.3075875930        1.7458009382       11.9565266390
  C         4.3547503881        2.4553498844       12.0071245640
  C         2.7163991218        2.2434590922       13.9098617691
  C         4.5926795930        2.9430415740       10.5532400214
  H         4.6829635448        1.4229711150       12.0650638321
  H         5.0226930004        2.9711977070       12.6924908580
  H         2.3662612947        3.2068550604       14.3876693579
  H         3.6276383341        1.9212713836       14.4161476032
  H         1.9466259483        1.4502669699       14.0799672828
  C         4.8493277539        1.7725201445        9.6064100596
  H         3.8573226966        3.6539006032       10.3097624011
  H         5.4633892803        3.5019855104       10.6435125590
  C         5.5258348190        2.0318966545        8.2884216677
  H         3.8537159924        1.3900969572        9.3258331698
  H         5.2466726898        0.8293397637       10.0141416452
  C         6.8586020037        2.7167306413        8.2998721714
  H         4.8305965802        2.6115030021        7.6990845177
  H         5.6928529185        1.0968058534        7.7965555011
  C         7.9495784155        1.9087320804        8.9036885473
  H         7.1847313137        3.0201903567        7.3034207087
  H         6.7179613328        3.6641793131        8.7097284351
  C         9.2596218741        2.7199970532        9.1308783082
  H         8.2215693061        1.1253342774        8.2221940637
  H         7.7127009610        1.4125408537        9.8400478101
  C         8.9095364579        4.0575687140        9.8357129416
  C         9.7076834783        3.4441678494        7.8640143071
  C        10.3419911390        1.9005440097        9.8435832593
  C         8.9161726496        5.1305825069        8.9771078845
  C         8.4542342153        4.4633801680       11.1035555339
  C         9.5903308507        4.8225651544        7.8013332478
  C        10.2370221313        2.8236936963        6.7411384980
  H         9.9456140815        1.4082855462       10.7466535604
  H        10.7260817429        1.1234040956        9.1224450909
  C        11.6034182000        2.8006061861       10.1357161648
  S         8.4000465328        6.6612239716        9.6424828184
  C         8.2006793924        5.8064725060       11.2062642570
  H         8.3980629280        3.7697738952       11.9476221124
  C         9.9104607490        5.4271159429        6.6317514295
  H        10.4657364344        1.7788007693        6.8242156341
  C        10.5574825594        3.5040996106        5.5832527110
  H        11.3609832060        3.7247643943       10.7643642246
  H        11.9736320663        3.0199910676        9.0958005032
  C        12.6612874730        2.1470295014       11.0698641678
  C         7.7939509705        6.4819299473       12.4967372158
  C        10.3971057939        4.8286597547        5.4644414087
  H         9.7595060885        6.4633517613        6.5738958458
  C        10.9824406878        3.1121445159        4.3448901511
  H        13.3833667315        2.8780493963       11.1880632652
  H        13.2018463410        1.3660168375       10.5120359762
  C        12.0123261432        1.8451631819       12.4630358276
  C         7.6476320349        7.8831498034       12.7247357931
  C         7.3355470339        5.6232345812       13.6421725944
  C        10.7679939243        5.4973735871        4.1746292191
  C        11.0892784649        4.1683670626        3.5077448417
  S        11.1550737850        1.5481569566        3.5730223971
  H        11.2982850467        2.6474055122       12.5528526347
  H        11.3814090611        0.9751355759       12.3465061350
  C        13.0858196135        1.7750992375       13.6588247609
  N         7.9579561523        8.8079020474       11.7565105180
  C         7.4085356294        8.4051431515       13.9644273596
  C         6.8966418873        6.1808324928       14.8462618077
  H         7.0425215750        4.5442349189       13.4522985808
  C        12.0522341466        6.3488771509        4.4656967148
  C         9.6183884676        6.2701071136        3.4724701744
  C        11.3447660587        3.7568768909        2.1947704219
  C        11.4628259940        2.3471835002        2.1156686733
  H        13.7998342283        2.5214893055       13.4693542637
  H        13.5007257956        0.7524156144       13.7062735516
  C        12.4007004077        1.9808479972       14.9726069319
  S         8.0044069559       10.2276949342       12.4604861630
  N         7.6550913399        9.7563944686       13.9643542357
  C         7.0297803467        7.6499143239       15.0633216190
  H         6.3789069184        5.4861192861       15.4941871359
  H        11.7345703180        7.2483605881        5.0117036570
  H        12.3671669945        6.6308984432        3.4580844174
  C        13.2081786783        5.5560463378        5.1686884787
  H         9.1798830175        6.8909023173        4.1989656712
  H        10.0436341142        6.9957923454        2.8011551176
  C         8.5124112850        5.3849374459        2.8956851416
  H        11.5424088241        4.4161090410        1.3541953317
  C        11.9100926593        1.6257807780        0.8415854385
  H        11.6653184617        2.7747924818       14.9503190989
  H        11.7530355266        1.0904746662       15.1988523647
  C        13.3098837853        1.9571965405       16.2297425622
  C         6.7767348402        8.3280762395       16.2674102801
  H        13.1269233072        5.4772216725        6.2452450904
  H        13.3489558294        4.5331964948        4.9126197219
  C        14.5510194964        6.1887603324        5.0161208243
  H         8.1859409209        4.7488334771        3.6830600484
  H         8.9517821358        4.7943997478        2.0929914711
  C         7.3292414184        6.1790085523        2.3400983345
  C        12.0708702416        0.2230510508        0.7170295321
  C        12.0668112163        2.3939205454       -0.4475690943
  H        14.1290257558        2.6054668366       16.0735420151
  H        13.7216847101        0.9224092313       16.3325220069
  C        12.5296972974        2.3755683613       17.4555772819
  H         6.8110743796        9.4020031024       16.0953931416
  C         6.4901670604        7.9026519428       17.5265491182
  H        14.5357850317        7.2076979717        5.3215291959
  H        14.9411693058        6.1010135430        3.9911161256
  C        15.5177562315        5.3825836993        5.7566294099
  H         6.7160360380        6.6675020197        3.0957793614
  H         7.6851657326        7.0039540338        1.7540623938
  C         6.4567180205        5.3999879829        1.2737444463
  N        11.8109673028       -0.6863255299        1.7395615455
  C        12.3416636797       -0.4372664254       -0.4967826195
  C        12.4274056907        1.7457747570       -1.6513096629
  H        11.9495440946        3.4470234535       -0.4833933047
  H        12.5039606461        3.4548504461       17.5877994221
  H        12.8879156378        1.9355608597       18.3969768154
  H        11.5276201495        2.0020668217       17.4287112582
  S         6.3542743446        6.2545404485       18.0645127247
  C         6.4368240229        8.9387212234       18.5776243838
  H        15.2177317311        5.2802883350        6.8179774800
  H        15.4516750280        4.3845763811        5.3497913059
  C        16.9306557751        5.8912475755        5.8835779899
  H         6.3625499223        4.4180736092        1.6513496807
  H         6.9303544511        5.2646907461        0.3629035991
  C         5.0526912734        5.9675662157        1.1902794639
  S        11.9357913249       -2.1684140200        1.1279376637
  N        12.2902060642       -1.8375206840       -0.4000096531
  C        12.5622274793        0.2325385564       -1.6888625276
  H        12.6121679842        2.3348690606       -2.5262423008
  C         6.1099548541        7.0203702691       19.6752222653
  N         6.2665972279        8.3304695605       19.7775803115
  O         6.4871774580       10.1415094903       18.4062385036
  H        17.4742947435        5.8249232801        4.9195957491
  H        16.8937304064        6.9585106010        6.1834829968
  C        17.6890033429        5.0839910620        6.9490057784
  H         4.4971930494        5.2393475931        0.5281715023
  H         4.5704457713        5.8831736103        2.1400889989
  C         4.9365642568        7.4131562010        0.5176496788
  C        12.8505775725       -0.5140992974       -2.8608815084
  S         5.6901606224        6.0885902859       21.1494816320
  C         6.2746382420        9.0525434742       21.0771536362
  H        17.0616801904        4.8973921839        7.8367210516
  H        18.0459321682        4.1306865038        6.4845582360
  C        18.9930495778        5.7081017264        7.3951111953
  H         4.4933020057        7.2898142341       -0.4565156208
  H         5.9665219454        7.8178849104        0.4367467174
  C         4.1171203588        8.4280978115        1.2519633638
  H        12.7281402647       -1.5736404238       -2.7069555024
  C        13.3506807581       -0.1921635705       -4.0853397801
  H         5.9390014038        8.4513932777       21.9180385580
  H         5.5819634201        9.8708947879       21.0938380133
  C         7.6910499476        9.5466410321       21.3727127657
  H        19.5590579351        5.0764823727        8.1031355529
  H        18.6644356647        6.6419331648        7.9460034552
  C        19.9120944752        6.0286186779        6.2449824229
  H         4.0170557716        9.2709505904        0.5324592171
  H         3.0654280841        8.0845651501        1.3645988114
  C         4.7544381414        8.8043602940        2.5952727185
  S        13.6865383829        1.3447848816       -4.6713150862
  C        13.4802039436       -1.2832691051       -5.0746299078
  H         8.5320159406        8.8372057641       21.2517674400
  H         7.8498418175       10.0112582016       22.3196560707
  H         7.9715685606       10.2485335446       20.6175118813
  H        19.8102643511        7.0020380500        5.8485980099
  H        20.9773171487        5.8378957263        6.4808445304
  H        19.7071117366        5.3030471522        5.3954506393
  H         4.3681714277        9.7666249837        2.7861285357
  H         4.4054673707        8.1830586972        3.4705468316
  H         5.8314282405        8.9619705767        2.5622983791
  C        14.2595596382        0.5266211149       -6.1056698346
  N        14.1761009340       -0.8380913858       -6.1236294170
  O        13.1099994082       -2.4693307220       -4.9110440395
  S        14.6746523666        1.3775833050       -7.5249438564
  C        14.2834162282       -1.7187605154       -7.2978561825
  H        14.5715144936       -2.7664681584       -6.9805256688
  H        15.0610736222       -1.4372921179       -7.9562685149
  C        13.0113901582       -1.6529636827       -8.2826239564
  H        12.0702694246       -1.9118289130       -7.8187928357
  H        13.1640261549       -2.1633335437       -9.1997862198
  H        13.0071518257       -0.5729694329       -8.4844401698
  H        -3.5758451854       15.1724056991       16.4555775216
  C        -3.2657731738       14.1396864765       16.3987426225
  H        -4.2193720892       13.6058387382       16.5921689217
  C        -2.1867357558       13.9631388542       17.4859857139
  C        -2.5649496337       13.8617401530       15.0412343118
  C        -2.6955127083       13.9504951460       18.9508591469
  H        -1.6628198519       12.9847186626       17.4714360280
  H        -1.4957549284       14.7890007967       17.4993033299
  H        -1.9440278863       12.9985544908       15.1088750398
  H        -3.2682077273       13.6245124161       14.2795831218
  H        -1.9628084924       14.6585850831       14.7411417243
  C        -1.6658085310       13.6278365499       19.9931694262
  H        -3.4602578120       13.1934729182       18.9946686916
  H        -3.1107924229       14.9580425304       19.1464806499
  C        -2.2863445392       13.3907743373       21.2961182631
  H        -1.2187673596       12.7570556626       19.6993186096
  H        -0.9675631143       14.4085921365       19.9739585144
  C        -1.1777492522       12.8606047360       22.2810243632
  H        -3.1887910714       12.7137167760       21.2468616407
  H        -2.7979913684       14.3143327378       21.7009604686
  C        -0.0855825481       13.9045319502       22.6280824664
  H        -1.6301480729       12.6667634358       23.2220253607
  H        -0.7297489629       12.0416722836       21.7896744349
  C         1.1535195839       13.2834396185       23.2865088768
  H         0.2766620061       14.3311372851       21.7542418785
  H        -0.5578875024       14.7375999462       23.1699357356
  C         1.6025313951       12.0309279717       22.5705323793
  C         0.7878443548       12.5309809242       24.5277830594
  C         2.2340091857       14.2810209624       23.4891999953
  C         1.4800969125       10.8752560264       23.4007083468
  C         2.1853787876       11.7082531258       21.3069083393
  C         0.9095500537       11.2045397360       24.6153086192
  C         0.2626574994       13.0739126101       25.6647865296
  H         2.2573557861       15.0025338638       22.6254494869
  H         1.9788828678       14.9054645502       24.3438756099
  C         3.5515666560       13.6301301794       23.8540470801
  S         1.8952391800        9.4091691841       22.6046647465
  C         2.3201227811       10.3495313913       21.1470503376
  H         2.5556120939       12.5277551934       20.7049904117
  C         0.5404937944       10.4749873802       25.7520433137
  H         0.0823851820       14.1195486596       25.6721781401
  C        -0.1549034183       12.4194427662       26.7621290245
  H         3.8354956461       13.0892494833       23.0003273350
  H         3.4798957364       12.8503892548       24.5787798795
  C         4.6182500184       14.6372791334       24.2532367702
  C         2.8471444533        9.5877754725       19.9424189008
  C        -0.0706164571       11.0720992470       26.8341408946
  H         0.8289488158        9.4103447999       25.8183720418
  C        -0.6478234374       12.7485294889       28.0257384974
  H         5.2740891502       14.2006616540       25.0277190114
  H         4.1516494188       15.5026362874       24.6682540940
  C         5.5941812067       15.0503150981       23.0987923676
  C         2.7409275530        8.2359925658       19.6903663930
  C         3.0854348224       10.4447976167       18.7705044370
  C        -0.4089283760       10.3635611545       28.1072109705
  C        -0.8037656607       11.6676378163       28.8287170036
  S        -0.8838086581       14.2813359419       28.8232676888
  H         6.4285063941       15.6618860892       23.4772958299
  H         5.1477710642       15.4743299388       22.2363689425
  C         6.3379185567       13.8338721423       22.4693043783
  N         2.4529712455        7.2733078157       20.6486211524
  C         3.0974875912        7.6203062435       18.5092186075
  C         3.3338101958        9.8587412185       17.5001094504
  H         3.0659910704       11.4883402099       18.9132515440
  C         0.7873756377        9.5213382997       28.7933833592
  C        -1.6691307152        9.5057320857       27.9071517419
  C        -1.2210256122       12.0144205144       30.1138115140
  C        -1.2363626473       13.3883936018       30.2533830379
  H         7.4239572346       14.0653099604       22.1879883115
  H         6.3115334887       12.9673769748       23.1165722632
  C         5.6014253422       13.2507226783       21.2860818403
  S         2.4108047647        5.8125676317       19.9472580881
  N         3.1715111481        6.2367167948       18.5591587232
  C         3.4613607325        8.3794000042       17.3577875012
  H         3.5234885448       10.4832793950       16.6943291654
  H         1.1845250165        8.7962361041       28.1252795074
  H         0.3573103695        8.8712513233       29.5361905701
  C         1.9209418404       10.4101082624       29.2432889471
  H        -1.5133350237        8.6344953132       27.1605440276
  H        -1.8447571499        8.9972536661       28.8368480686
  C        -2.9845486452       10.2616617921       27.5105038166
  H        -1.2914790264       11.2885196223       30.8504402691
  C        -1.5207270636       14.0619966508       31.5626724879
  H         4.5602606396       13.5496318945       21.0932115824
  H         5.6657589400       12.1601512380       21.3394904132
  C         6.4315188594       13.5876355157       20.0264192466
  C         3.7255602771        7.6446634124       16.1252469216
  H         2.3924359531       10.8176251357       28.3641481032
  H         1.5473103802       11.2503802472       29.8164350552
  C         2.9460120032        9.6587738752       30.0908026580
  H        -2.8555802339       10.9106005148       26.6569303743
  H        -3.3684554957       10.7444466428       28.3993320683
  C        -4.0650544329        9.2987815362       27.0884294524
  C        -1.5762826094       15.4820176097       31.7296025421
  C        -1.7496894509       13.2059764869       32.8113841625
  H         6.9648909936       14.5603116732       20.1039825666
  H         7.2258723348       12.7257622228       20.0946682033
  C         5.5510150234       13.5167541457       18.8155419673
  H         3.8969826302        6.5459351998       16.3243744784
  C         3.8883285835        7.9654406748       14.7954252609
  H         2.9429799483        8.5839007968       29.8383662398
  H         2.4860477275        9.6986737968       31.1257180652
  C         4.3657080408       10.1971186621       30.0147419307
  H        -3.7123283578        8.9915427097       26.1219096838
  H        -4.1459474515        8.5033172134       27.8414448943
  C        -5.5153481963        9.8129365130       27.0491230574
  N        -1.2236190017       16.4524075396       30.8098891931
  C        -1.8354817342       16.0224196419       32.9974644177
  C        -2.1094338822       13.8144877441       33.9912087827
  H        -1.6402465336       12.1710840046       32.7750910810
  H         6.2011008012       13.8305413675       18.0015931005
  H         5.2339103809       12.5542461795       18.5214838595
  H         4.7296850534       14.2634715208       19.0140778009
  S         3.9941024811        9.4946633138       14.2697940971
  C         3.9424333317        6.8847913032       13.7215046293
  H         4.5417829964       10.6388276116       29.0693943777
  H         4.4312297669       11.0117024021       30.7139130678
  C         5.5774324214        9.2225948706       30.1729797183
  H        -5.5014548544       10.6309021613       27.8083155960
  H        -6.1619783995        9.0480829805       27.5081810441
  C        -5.9206585951       10.2924341599       25.6862831979
  S        -1.3562818571       17.8820298064       31.5559963358
  N        -1.8054752546       17.4218204257       32.9928658990
  C        -2.1262115133       15.2846575743       34.1687886371
  H        -2.2052693824       13.2027143733       34.8388329659
  C         4.2214687361        8.8529931299       12.6444635981
  N         4.2080825641        7.5297180730       12.5285927769
  O         3.8906768266        5.6632197385       13.9189785176
  H         6.4914328897        9.8192817784       29.8222377776
  H         5.4366015726        8.3447016667       29.5086127196
  C         5.9143136356        8.6316328234       31.5883156266
  H        -5.2471393756       11.0171878100       25.3322536578
  H        -5.8144255911        9.5224519848       24.9605784962
  C        -7.3296651137       10.9158484885       25.5172666634
  C        -2.4101607033       15.9869058436       35.3989906696
  S         4.4275613260        9.7584923763       11.2049026991
  C         4.1540121790        6.7577523136       11.2430303567
  H         6.2122106881        9.4760638791       32.2353629774
  H         5.0690929197        8.1240352854       32.0603477428
  C         7.1000084437        7.5867461265       31.4210815407
  H        -7.4736562442       11.1866382878       24.4833702834
  H        -7.4418614871       11.7989303451       26.0398931053
  C        -8.3917453932        9.9318983048       25.9463617475
  H        -2.1287660372       17.0352070157       35.5618628510
  C        -2.9698444930       15.6009281618       36.5123580405
  H         4.5311118914        7.3361811790       10.4989262311
  H         4.7649716390        5.8827886699       11.3523037784
  C         2.7119602051        6.3422820185       10.9339362064
  H         7.8498727111        7.6679614748       32.2347289491
  H         7.5925797575        7.6916852722       30.4184301258
  C         6.7174811729        6.0600772438       31.3004718166
  H        -8.3528551320        8.9730351370       25.3970449360
  H        -8.2401904000        9.7487929740       27.0423373007
  C        -9.7612746637       10.5192701061       25.8435804372
  S        -3.4704567408       13.9849718222       36.9522285467
  C        -3.1315282931       16.5934980018       37.6389665164
  H         2.2944098340        5.5993210009       11.5980521536
  H         1.9265807877        7.2208981590       10.8270144713
  H         2.6552487039        5.7822686741        9.9482849678
  H         6.2507756735        5.8937851274       30.3961236733
  H         5.9405555034        5.8941944647       32.1022341356
  H         7.5048503160        5.2810482924       31.5023957378
  H        -9.9804954994       10.7039710277       24.7629439546
  H        -9.9660320124       11.4707063118       26.3299849153
  H       -10.4941066212        9.8377557414       26.1405475473
  C        -3.7898986894       14.6743667054       38.6018613146
  N        -3.6747903295       16.0111303079       38.7352556801
  O        -2.8161627193       17.8002517832       37.5598027657
  S        -4.5044177085       13.8700731474       39.9883817734
  C        -3.9613800694       16.7652625875       39.9184817394
  H        -4.4015829906       17.7122158419       39.5967024972
  H        -4.7441566674       16.4053152569       40.5402181179
  C        -2.6763840198       16.9589812757       40.7901565234
  H        -2.7810499464       16.2214009903       41.5065289901
  H        -1.8108897140       16.7771839761       40.2130243387
  H        -2.6535367259       17.8576736708       41.3061543848
