352
i=
  H         4.5238114580        1.8000611009       12.9052119581
  C         3.7844293718        2.5273668894       13.0325903269
  H         4.2642287229        3.4635428826       13.2296180821
  C         2.9386324112        2.6212648261       11.7724263950
  C         2.9202765359        2.1503074708       14.2788558448
  C         3.8479400808        2.7835938866       10.5395252636
  H         2.2571146089        3.5218563767       11.7634437167
  H         2.3512846493        1.7185038399       11.7984383191
  H         3.2639819124        2.6220928677       15.2065465523
  H         2.7752839173        1.0762004007       14.3967555119
  H         1.9264954096        2.5816540729       14.0568556550
  C         4.5565663529        1.5506872639       10.0892448486
  H         3.3542280917        3.2757388465        9.6805213068
  H         4.5434265709        3.5561905693       10.8017466919
  C         5.2327602769        1.6586753460        8.7064307806
  H         3.8020112054        0.7465388663       10.1023343616
  H         5.2084932653        1.1941557995       10.9555659372
  C         6.5372191994        2.5291092992        8.7943833052
  H         4.6561152324        2.0190842117        7.8747093638
  H         5.5348683214        0.6548986321        8.4534335131
  C         7.7622497508        1.7865550887        9.3828312911
  H         6.8867465383        2.7256054980        7.7519111903
  H         6.3575037347        3.4939960065        9.2563961645
  C         8.9945112711        2.7091155070        9.5714410949
  H         8.0634034951        0.9084503981        8.7151732479
  H         7.3992412590        1.4557752402       10.3430729647
  C         8.5278528984        4.0803034553       10.1666900619
  C         9.3995315610        3.3954146713        8.2789451230
  C        10.1472304355        2.0117861510       10.3473032500
  C         8.7427266027        5.1729512819        9.3629414133
  C         7.9218693990        4.4600484755       11.3645313443
  C         9.2545957765        4.7284775930        8.1571540007
  C         9.8923642216        2.7329981439        7.1823966157
  H         9.6845828714        1.5228225612       11.1935443849
  H        10.5194348197        1.1664102463        9.7368189411
  C        11.4009891048        2.8853249947       10.6631365611
  S         8.3375010916        6.7376323412       10.0937069192
  C         7.7852361466        5.8147472513       11.4700961186
  H         7.6744124054        3.7362844617       12.1078876113
  C         9.7193716388        5.3143959832        7.0006842315
  H        10.1668694532        1.6869301427        7.2290401607
  C        10.3059912051        3.3335065862        6.0460447635
  H        11.1228422473        3.8624592869       11.2196598974
  H        11.8336801757        3.3592757729        9.7702526476
  C        12.4532537247        2.1420455596       11.4287965352
  C         7.3479035738        6.5470020699       12.6750815061
  C        10.2346933732        4.6425972083        5.8756940958
  H         9.5823663690        6.3783964458        6.9406262543
  C        10.7807616415        2.9219154134        4.8306551008
  H        13.2312651937        2.8453342941       11.4760343993
  H        12.7981468099        1.2681114194       10.8656759870
  C        12.0619493328        1.7210762519       12.8504072983
  C         7.5185401827        7.9358852506       12.9010201187
  C         7.0615937007        5.7741025993       13.8886438915
  C        10.7904381331        5.2320147505        4.5480268724
  C        11.1187243358        3.9401235024        3.9506510122
  S        11.0119245037        1.3798710660        4.1018289172
  H        10.9904610466        1.5047661547       12.9500868716
  H        12.5337395378        0.7947875112       13.0090028944
  C        12.5230291109        2.7866954070       13.8150571378
  N         7.8485199262        8.8855441650       11.9264711855
  C         7.4484356180        8.5065338923       14.1645880204
  C         6.9382123543        6.3923343109       15.1245343435
  H         6.7216480198        4.7634829532       13.8011525391
  C        12.0582310534        6.1611226049        4.8513253605
  C         9.7144697411        5.9026901789        3.6501568992
  C        11.6403711238        3.5128295244        2.7007140105
  C        11.5844143157        2.1260263591        2.6551651576
  H        12.2478402223        3.7508622906       13.3538152784
  H        13.6687112850        2.8062951665       13.8511047458
  C        11.8237096011        2.6772995391       15.2109422916
  S         7.9129316973       10.4047111880       12.6389508620
  N         7.4793876065        9.8809037379       14.1204851173
  C         7.2264469432        7.8230725171       15.3384722809
  H         6.4572351473        5.8546325500       15.9329214808
  H        11.6990597638        6.9010251839        5.5218200189
  H        12.3899117308        6.7149077623        3.9636568922
  C        13.2568252451        5.3425198811        5.3525692405
  H         9.3578534498        6.7516441053        4.2663190622
  H        10.1882081093        6.2137927656        2.7388278090
  C         8.4667463775        5.0120369910        3.3649992206
  H        11.9543435923        4.2237814537        1.9363498242
  C        11.9346510184        1.3110899853        1.3527178373
  H        12.2000706099        3.4455432435       15.9005923880
  H        10.7613590581        2.8068411224       15.1114087012
  C        12.1795060055        1.2988900675       15.8110452482
  C         6.9677998164        8.4466828673       16.5588934016
  H        13.1049332246        4.8613509268        6.3405394499
  H        13.4968170740        4.6417273688        4.5219922278
  C        14.5475415016        6.1117390263        5.4745065262
  H         7.9829841317        4.7688363031        4.2955211868
  H         8.6238926946        4.0926005917        2.8253578442
  C         7.4565297890        5.8316068475        2.5817774108
  C        11.9292707168       -0.0838627472        1.1321496126
  C        12.2348906327        2.0451579323        0.1082319961
  H        13.1395681596        0.9462868802       15.4332311926
  H        11.5191592011        0.5492387849       15.6878499235
  C        12.2635953385        1.5597965894       17.3204710702
  H         7.0202796034        9.5115035805       16.5628382844
  C         6.6275108459        8.0152143493       17.8629697644
  H        14.4196481527        7.0155856885        6.1242152298
  H        14.8821339732        6.6147933049        4.5157201078
  C        15.7725187993        5.3376905436        5.8919426462
  H         7.5312198050        6.8529179028        2.8649411953
  H         7.8617754938        5.8294052676        1.5467650851
  C         6.0046940969        5.3284434114        2.6451066464
  N        11.6788314355       -0.9691537902        2.1474469089
  C        12.2835006811       -0.6782266530       -0.0979069408
  C        12.5075328364        1.4879035043       -1.1220308245
  H        11.9067116308        3.1094187301        0.1112920058
  H        11.9010190248        2.5461410492       17.6991611984
  H        13.3249544090        1.6553682676       17.6298669198
  H        11.7731532585        0.7746745544       17.9615288485
  S         6.2210260768        6.3871978815       18.3071325727
  C         6.5658832889        9.0435499707       18.9925960390
  H        15.5014116900        4.7869587344        6.7407885451
  H        16.0644029392        4.6880040307        5.1328443296
  C        17.0483156931        6.0916313405        6.1818273750
  H         5.8012334766        4.6668017825        3.4979123969
  H         5.8501709521        4.8282958816        1.6245114414
  C         5.0236166034        6.4824194048        2.7676932932
  S        12.0578811966       -2.4799409728        1.6257332744
  N        12.4898386197       -2.0788955653        0.0670686387
  C        12.5560415235        0.0058840159       -1.2791144659
  H        12.6649015548        2.1428357164       -2.0111020889
  C         6.0692589242        7.1163513487       19.9668405798
  N         6.1091204307        8.4669911417       20.1137531216
  O         6.8682296727       10.2128342948       18.8945150950
  H        17.4523733607        6.8318636775        5.5143418334
  H        16.5869962907        6.5951462807        7.0432824947
  C        18.2473010149        5.2694786458        6.6944611970
  H         4.0305081085        6.0215457655        2.9753058689
  H         5.1799727529        7.1148767156        3.6625016444
  C         5.0236910001        7.3578364043        1.5024946166
  C        12.7040631777       -0.7544605242       -2.4704716593
  S         5.4959406286        6.0863096503       21.2843415304
  C         6.0614275008        9.1672180030       21.3945114954
  H        17.9803287925        4.9096031386        7.6439408287
  H        18.4564664641        4.3695024473        6.0683094204
  C        19.4551578943        6.1588066055        6.8535272951
  H         4.9035108080        6.7972877412        0.6472751449
  H         5.9961793943        7.8420539314        1.4191671403
  C         4.0142600587        8.4699658048        1.5574163550
  H        12.8697703403       -1.8148312122       -2.3875135279
  C        13.1201930265       -0.4035876048       -3.7615293757
  H         5.2664024851        8.7108082487       21.9910978249
  H         5.9400488691       10.2424378313       21.2428895705
  C         7.4686884780        9.0518872009       21.9874087729
  H        19.9770870178        6.0022901396        7.8701494655
  H        19.0442635784        7.2143207597        6.8198494765
  C        20.4620022680        5.8807839755        5.7989636486
  H         3.8804514873        8.9379954230        0.6153732006
  H         3.0454852648        8.1413048098        1.8989935173
  C         4.3999317916        9.4115696039        2.6999042227
  S        13.5247892500        1.2286647318       -4.2739974675
  C        13.3713441373       -1.4327841820       -4.7893755889
  H         7.6303166513        8.0217143377       22.2826999313
  H         7.3809245355        9.6355429578       22.9102055234
  H         8.1228289357        9.6290996815       21.4313309026
  H        20.0156866471        5.6122658444        4.8907867905
  H        21.1246740475        6.7014373816        5.4625579271
  H        21.1085055629        5.0323241989        6.0666609655
  H         3.9082912786        9.0928358914        3.5484997145
  H         5.4302967744        9.4556622250        2.9857542306
  H         4.0348182046       10.3697572242        2.5325052300
  C        13.9540021911        0.5355743354       -5.8334241799
  N        13.8272237241       -0.8080457395       -5.9064274303
  O        13.1742407053       -2.5884397642       -4.5763930295
  S        14.7741074396        1.4591427536       -7.1433394249
  C        14.1121152800       -1.4798802940       -7.1792165072
  H        14.5574982592       -2.4060923103       -6.8462427612
  H        14.7266019716       -0.9107446554       -7.9016961628
  C        12.7825450006       -1.6519192207       -7.9064930188
  H        12.8195286745       -2.5300916970       -8.5090733014
  H        12.7203854710       -0.8420164030       -8.6968147133
  H        11.8976539929       -1.5671949301       -7.3163839417
  H        -3.5650498498       14.5544806690       16.3896059896
  C        -2.8552809089       13.6314597296       16.3079819909
  H        -3.5094576627       12.8323171753       16.6300370709
  C        -1.6842890445       13.7020263148       17.3066266945
  C        -2.4827767416       13.3757159624       14.8423679628
  C        -2.1412807434       14.3281581132       18.6125628237
  H        -1.2064730449       12.7562399401       17.3927197879
  H        -0.8783467070       14.2404733413       16.9160946520
  H        -1.5879488307       13.9617491984       14.4815630179
  H        -2.1186395536       12.3540811107       14.8368960569
  H        -3.2769508573       13.4938979845       14.0946808281
  C        -1.4914380325       13.5645682644       19.7122712741
  H        -3.2349878472       14.3535908990       18.7112605729
  H        -1.8061910995       15.4181131244       18.6248135365
  C        -2.0919877045       13.8042441478       21.1278244140
  H        -1.5994307086       12.4917730438       19.5123026994
  H        -0.4056680018       13.6870924182       19.6009167523
  C        -1.1690767957       13.2598399109       22.2413158119
  H        -3.0474760635       13.2945873141       21.1155718428
  H        -2.1353515396       14.9221979845       21.2407309130
  C         0.0540264734       14.0945246793       22.6690260769
  H        -1.8241786221       13.2779012065       23.0921322413
  H        -0.9094118173       12.1944250461       22.1110024132
  C         1.1155213949       13.2539240526       23.4532521592
  H         0.5488981885       14.4732129828       21.7157838805
  H        -0.1208755611       14.9940571722       23.2374660380
  C         1.4242119757       11.9152643657       22.7731940770
  C         0.6515406664       12.5116647790       24.6707159643
  C         2.4229487596       14.0736879810       23.6991816693
  C         1.1922381158       10.7742343148       23.4993686524
  C         2.0018831794       11.5806169089       21.5271113433
  C         0.5864706288       11.1447688929       24.7066488536
  C         0.2660666136       13.1789556174       25.8890352187
  H         2.6212723478       14.7949030036       22.8839778302
  H         2.3075760544       14.5009911884       24.7052987320
  C         3.7402854298       13.2586740797       23.9154600847
  S         1.9448189496        9.3815504913       22.7874981389
  C         2.2695718635       10.2572799989       21.4057546243
  H         2.1893017020       12.3756250469       20.8301514625
  C         0.1758342542       10.5909807312       25.8764094715
  H         0.2318326714       14.2906905099       25.8567680791
  C        -0.1664378437       12.5562295256       26.9978809610
  H         4.0142176448       12.7966610900       22.9868433334
  H         3.7043799652       12.5198020666       24.7373217030
  C         4.8280647814       14.2281509077       24.3053894585
  C         2.6426258080        9.5557697536       20.0457994028
  C        -0.1540829120       11.2145920107       27.0859895086
  H         0.0905734131        9.5527752714       25.8370307030
  C        -0.5927406248       12.9843214415       28.2393443790
  H         5.5143004022       13.6878483242       24.9712630239
  H         4.3793916555       14.9790280498       24.9419875743
  C         5.5387418008       14.9679446504       23.1807557663
  C         2.4606296220        8.1554863389       19.7316341334
  C         3.1950553363       10.3740806438       18.9134489099
  C        -0.6032230812       10.5375182664       28.3712388864
  C        -0.9274480884       11.9156984722       28.9872193444
  S        -0.7856467914       14.5399603209       28.9055217998
  H         6.0664336636       15.8334892385       23.5020022834
  H         4.8196188402       15.4240840571       22.4517847910
  C         6.5189637132       14.0847114689       22.3678988305
  N         2.0042255089        7.1830000545       20.6684142565
  C         2.7934679581        7.5610098008       18.5124897940
  C         3.4456017461        9.8272390214       17.6727449215
  H         3.4279578493       11.4047931649       19.1238522841
  C         0.5363033793        9.7850489214       29.1875044392
  C        -1.8417819524        9.6458300938       28.1629359161
  C        -1.2654351854       12.3753199128       30.2259638878
  C        -1.2408062571       13.7451804448       30.3674901076
  H         7.4625133433       14.6215393060       22.4259052071
  H         6.6569883437       13.0754832652       22.8393033468
  C         6.2473278288       13.9620984055       20.8495118998
  S         2.0481196153        5.7008251204       19.9094682284
  N         2.6736976830        6.1445886970       18.4771790140
  C         3.2453261659        8.3339296250       17.4098920259
  H         3.7643418464       10.4012620325       16.8229674614
  H         0.6841831343        8.7265123296       28.8108178735
  H         0.1565551230        9.6134180849       30.2157531090
  C         1.7589137190       10.7044404550       29.3320261479
  H        -1.6135916637        8.7385641716       27.6259241775
  H        -2.1798896834        9.3809038133       29.1487129807
  C        -2.9221011904       10.3853655935       27.5376022583
  H        -1.3181541575       11.7494897818       31.0441695042
  C        -1.5533416155       14.4655326091       31.6478781040
  H         6.0012284050       14.9591938344       20.4030811896
  H         5.3118706201       13.3927553981       20.5409967135
  C         7.4899143303       13.5428404253       20.1407913853
  C         3.4503758327        7.6872240289       16.1908918751
  H         2.0871159448       10.9824678420       28.3499037861
  H         1.6134346177       11.5524499840       29.9697109116
  C         2.9962016194        9.8820903430       29.8040634241
  H        -2.6376263245       10.7442158449       26.5295453094
  H        -3.2710743217       11.2722267835       28.1531532998
  C        -4.1079871044        9.5053059181       27.2743983292
  C        -1.6537810136       15.8713370799       31.7245557730
  C        -1.7857433779       13.7595766636       32.8293155202
  H         8.2905458166       14.3133113097       20.3588531519
  H         7.8685278243       12.5659726470       20.5251129285
  C         7.3525268833       13.4417139232       18.6053002380
  H         3.4749821709        6.6093633349       16.2695026281
  C         3.8177806939        8.1286645958       14.9252923233
  H         3.4056281185        9.2010358794       28.9957038024
  H         2.5917320790        9.2262705157       30.5980198774
  C         4.1126379748       10.7928408723       30.3967478674
  H        -3.8453744126        8.7600058494       26.5288580385
  H        -4.4258471413        8.9056008740       28.1153319885
  C        -5.3532967522       10.2581419012       26.9365682488
  N        -1.3217880229       16.7785704751       30.7215443018
  C        -2.0728114302       16.5666336978       32.9492681514
  C        -2.1903894069       14.3625794788       34.0199644702
  H        -1.6212951204       12.7131975887       32.7451558159
  H         6.4355009392       12.9849736983       18.3810461546
  H         7.4540615941       14.3830800744       18.1057552011
  H         8.1342249060       12.7399763237       18.2205915528
  S         3.9061070880        9.7565561198       14.3785886086
  C         3.8291001083        7.1484322667       13.8323205001
  H         4.3937690095       11.6090391535       29.7254934655
  H         3.7126696369       11.3613144424       31.2582295049
  C         5.4562190693        9.9329293970       30.6759764520
  H        -5.0474508058       11.2758342215       26.4995854871
  H        -5.8240592308       10.5241585657       27.8749316921
  C        -6.3206419544        9.5398188334       25.9709207091
  S        -1.5883032424       18.3193908980       31.2935079703
  N        -2.1862375968       17.9524339139       32.8021076450
  C        -2.3672438469       15.7987815933       34.1032329931
  H        -2.3907328386       13.7500791640       34.9424366671
  C         4.3050634041        9.0519854944       12.7516266264
  N         4.2184387775        7.6898353152       12.6611523685
  O         3.4853977151        6.0090698670       13.9321311215
  H         6.2681273556       10.6147377787       31.0853853172
  H         5.8255298345        9.6533240064       29.7319594813
  C         5.1436022459        8.7403094513       31.5034403916
  H        -5.7933829073        9.1653652835       25.1593963320
  H        -6.7494906177        8.6462825504       26.4435950132
  C        -7.4497880593       10.3978072625       25.4518679992
  C        -2.7175187726       16.5371020397       35.3431362511
  S         4.6380291039        9.9614135660       11.2959269086
  C         4.1791468472        7.0336437397       11.3055412490
  H         4.3741986227        8.9512620643       32.2573804625
  H         4.6895092227        7.9685823288       30.8895472661
  C         6.2772483879        8.0216379968       32.1695400431
  H        -7.1620933169       10.6981441325       24.4468501758
  H        -7.5735578381       11.3471264021       26.0719275846
  C        -8.7900802875        9.7435280474       25.3559563091
  H        -2.5925298124       17.6176428407       35.2725104143
  C        -3.2125653663       16.0277158781       36.5256129624
  H         4.9224484283        7.3775070507       10.5927402007
  H         4.5993609489        6.0575822972       11.5355603603
  C         2.7202842544        6.7867093635       10.7360774414
  H         6.2764225061        8.2061457564       33.2653984529
  H         7.1676667958        8.3395163120       31.7015768604
  C         6.2334787064        6.4849482645       31.9639073780
  H        -9.3363787726       10.3223359124       24.6586214238
  H        -8.7632891171        8.6920563020       25.0341164144
  C        -9.6429371466        9.8039538057       26.6692410690
  S        -3.6701670248       14.4751612915       36.9426255638
  C        -3.3370791415       17.0604852101       37.6572914220
  H         2.7170907116        6.2654358394        9.8257799270
  H         2.1072051194        6.2903492484       11.4371365628
  H         2.2378366778        7.7516020966       10.5841406921
  H         7.2284479180        5.9934105078       32.0921355057
  H         5.8334884404        6.1394631603       30.9615511759
  H         5.5871766116        5.9958887520       32.6421845676
  H        -9.4450536065       10.6218047694       27.3836000550
  H        -9.4970993885        8.8327932949       27.1650135056
  H       -10.6459713334        9.9324377269       26.3346617218
  C        -3.8791489696       15.0862885240       38.5691386768
  N        -3.9104104967       16.4041727420       38.7034488777
  O        -3.1088669312       18.2878520163       37.5031101582
  S        -4.2201484461       14.1000075524       39.9810806442
  C        -4.0375726001       17.2367894888       39.9427346911
  H        -4.3042858677       18.2533919976       39.6332640733
  H        -4.7254959320       16.8593769991       40.6406495564
  C        -2.6783157801       17.2996803402       40.6737487156
  H        -2.7682661872       16.9020755697       41.6878146530
  H        -1.9389073546       16.7039626479       40.2102303843
  H        -2.2576892050       18.3136770041       40.8074237442
