352
i=
  H         3.1342665891        3.8587518868       12.0600469347
  C         3.0300531964        2.8048953115       12.2235070686
  H         2.1607748923        2.6857267842       12.9460487893
  C         2.8917265010        1.9239026551       10.9387666654
  C         4.2568994173        2.4021867108       13.0015215909
  C         3.9002641009        2.4626447623        9.8492770800
  H         1.7789865006        1.9488257169       10.6543383366
  H         3.1848868170        0.9337134819       11.2598004805
  H         5.1060021100        2.3897674106       12.3236246997
  H         4.1620986772        1.3967545408       13.5529259712
  H         4.3393074680        3.0064126055       13.8834066515
  C         4.6766090696        1.3085876900        9.2119585806
  H         3.3009027143        2.8329522777        9.0352252133
  H         4.5367956459        3.1622139871       10.2748083324
  C         5.5971814122        1.6461754305        8.0279262261
  H         3.8789353000        0.6416217612        8.9018912036
  H         5.2984151859        0.7949356306        9.9524283011
  C         6.8389390049        2.4628512307        8.4172464324
  H         4.9800855934        2.0953366235        7.1442312345
  H         6.0172521295        0.6999726345        7.6916644376
  C         8.0206664857        1.6370768301        9.0751442945
  H         7.2253166553        2.8479660848        7.4949752063
  H         6.4668899853        3.2343874784        9.0841399371
  C         9.2632875374        2.5475865713        9.2725052864
  H         8.2719638524        0.9354375854        8.3217138731
  H         7.7137104037        1.1360198234       10.0070020065
  C         8.9524765851        3.9390093934        9.9127402258
  C         9.8266123466        3.2959422919        8.0429916486
  C        10.4817588173        1.8360175960       10.1021239885
  C         9.2520805350        5.0332086250        9.1598609976
  C         8.4503374677        4.2996374481       11.1690512094
  C         9.7459036430        4.6440441376        7.9498298756
  C        10.2717389369        2.7812239528        6.8025113792
  H        10.0752146496        1.5875066406       11.1340781416
  H        10.8302944488        0.9336525325        9.5736725552
  C        11.6070764918        2.7904327280       10.4121015513
  S         8.9282582704        6.5194495842        9.9160082265
  C         8.4516265094        5.6950396742       11.3126853522
  H         8.1235459348        3.4895599567       11.8269855645
  C        10.1210889906        5.3519206603        6.8464168830
  H        10.2293786755        1.6868702769        6.6973102307
  C        10.6759450648        3.4620111193        5.7046432948
  H        11.1998187075        3.6752568751       10.8886119626
  H        11.9989750230        3.2443051721        9.5319459959
  C        12.6205400883        2.2624124871       11.4416618509
  C         7.9814309075        6.4056448510       12.5429561428
  C        10.5433843162        4.8209828773        5.6643048689
  H        10.1234073531        6.3791139406        6.8003872672
  C        11.0623532056        3.0562328618        4.4714228613
  H        13.4953540797        2.8810769787       11.3325620385
  H        12.8638967659        1.1685873391       11.2925519459
  C        12.0071094318        2.4042171099       12.8626277207
  C         7.8916193619        7.7744234794       12.6811492207
  C         7.6223333562        5.6069102864       13.7297338974
  C        10.9996600655        5.5705058766        4.4528979782
  C        11.2891281854        4.2078161604        3.7458876583
  S        11.3330018408        1.5940239882        3.7167117884
  H        11.4323277167        3.3531057369       13.0794934615
  H        11.1958775321        1.6026750442       12.9661318415
  C        13.0568691549        2.1559457159       14.0013144943
  N         8.0014891782        8.6927358974       11.6911167967
  C         7.6271939515        8.4118413403       13.9288210526
  C         7.3207303299        6.1371138990       14.9418397036
  H         7.7777802992        4.5586316137       13.5806224917
  C        12.1850807730        6.4038715278        4.6650995138
  C         9.8978283720        6.2300759743        3.6743547116
  C        11.7243903280        3.8049113876        2.4838235514
  C        11.6692300945        2.4272120719        2.3108173271
  H        14.0409466237        2.5845583457       13.8885666106
  H        13.3962430202        1.1567328158       13.8898704216
  C        12.3907270428        2.2896095154       15.3241032156
  S         8.0283991643       10.1854445055       12.3490396305
  N         7.7878674728        9.8035604506       13.9064221954
  C         7.3249673043        7.6502065413       15.0858983438
  H         7.0108153548        5.4497955265       15.6885087926
  H        11.8758211083        7.0356649680        5.4506962609
  H        12.4199519460        7.0666812060        3.7967131899
  C        13.3936080470        5.5777560790        5.0257586149
  H         9.6050701804        7.0708649977        4.2728877242
  H        10.4076103456        6.7077653171        2.8402040854
  C         8.6935327641        5.3787756936        3.1837935868
  H        11.8218698452        4.5095722715        1.6845447721
  C        11.8688023837        1.6665018992        0.9978252074
  H        11.9737206864        3.2853668135       15.3880463973
  H        11.6100898935        1.5321031200       15.2684572427
  C        13.2222576564        1.8011850719       16.5304077575
  C         6.9080974076        8.3262803760       16.2420926809
  H        13.1396353676        4.7521811908        5.7008393276
  H        13.8216026277        5.1222394060        4.1969935422
  C        14.4613772732        6.3678322271        5.6576502035
  H         8.1066474077        5.0403059379        4.0495325080
  H         9.0048683679        4.4861379142        2.6279757500
  C         7.6544817685        6.1451094002        2.3893230914
  C        11.8085500684        0.2610943447        0.8453201152
  C        12.0756920413        2.4361302753       -0.2756969508
  H        14.2957464759        2.0110427255       16.3920662551
  H        13.1166746978        0.6879167160       16.6444993589
  C        12.7229000900        2.4940094487       17.8322862504
  H         7.0648622957        9.3572214420       16.2358309589
  C         6.4806332914        7.9870022630       17.5084377290
  H        14.1278903797        7.0475910685        6.4330426304
  H        14.9188605198        6.8748055874        4.8064722192
  C        15.4592336308        5.4042939146        6.3089221141
  H         7.2579800761        6.9919954231        3.0693102139
  H         8.0759294040        6.4582601926        1.4487369255
  C         6.4814995217        5.2031092483        2.0298566888
  N        11.5778921999       -0.7047283856        1.8330329422
  C        12.0925488694       -0.3005691091       -0.3864140029
  C        12.3026996206        1.8689264340       -1.5589168751
  H        12.2271558970        3.4452443497       -0.1213734877
  H        11.5973731967        2.4466766122       17.9940241140
  H        13.0416355422        3.5157075157       17.7064851590
  H        13.2024227947        2.0069729487       18.7063897120
  S         6.1508464658        6.3754122143       18.1150548171
  C         6.4487973917        8.9839523808       18.6365101574
  H        14.9140509601        4.8809047413        7.1182244647
  H        15.8870669050        4.5732440484        5.6753786114
  C        16.6936556483        6.1633894346        6.8825602030
  H         5.9473879452        5.0226994680        2.9221349692
  H         6.8421632810        4.2166821816        1.7457866021
  C         5.5602516692        5.7014290861        0.9849178254
  S        11.5680791703       -2.2142432228        1.1629233964
  N        12.0751724592       -1.7315355406       -0.3115239632
  C        12.3255374208        0.3849122093       -1.5867025165
  H        12.5505912511        2.4331371059       -2.4273549944
  C         5.9963160485        7.0741441417       19.7201715255
  N         6.0605793589        8.3964056648       19.8132650848
  O         6.7419335429       10.1428290424       18.4055572594
  H        17.1080891548        6.6708124214        6.0160407901
  H        16.3643203480        6.9363956910        7.5836192396
  C        17.8303318029        5.3258915756        7.5028129205
  H         6.1322587885        5.9446462591        0.0950285699
  H         4.9416105001        4.8897198782        0.6652524524
  C         4.6135220434        6.7868454644        1.4134356842
  C        12.6051595673       -0.4063016473       -2.7042664107
  S         5.4350942885        6.1596277522       21.1705970201
  C         5.9979692689        9.0921353852       21.0791697449
  H        17.5142984214        5.0008086194        8.5021401739
  H        18.0801747766        4.4297241223        6.8500642090
  C        19.0830690665        6.0810034659        7.6765519203
  H         4.4526646725        6.7238822806        2.4958713858
  H         3.6874093492        6.6004779510        1.0273051822
  C         5.2330870009        8.1455132763        0.9763022522
  H        12.1653111596       -1.3439764534       -2.6140103886
  C        13.0628778151       -0.0669892379       -4.0061914372
  H         5.2162319810        8.7494501126       21.7078659940
  H         5.6110808092       10.1232615049       20.8415110871
  C         7.3801679617        9.2795820881       21.7825099701
  H        19.4720183294        5.7755490127        8.5778754176
  H        18.8435634021        7.1299719983        7.7931656709
  C        19.9774613300        5.9030472540        6.4616123494
  H         6.0819306334        8.3023790031        1.5674852439
  H         5.5308435828        8.0715967141       -0.0160331181
  C         4.4290161747        9.3853343181        1.1370138791
  S        13.6195449341        1.4004480478       -4.5584741022
  C        13.1399627380       -1.2015351674       -4.9564063876
  H         8.1639055994        9.2767029781       21.0250608825
  H         7.4430961838        8.4047788611       22.4778110070
  H         7.4994679053       10.3124165877       22.2337046056
  H        19.4523300524        5.9988092238        5.5182038037
  H        20.8199839175        6.5809253697        6.3554732442
  H        20.2896883766        4.8543630818        6.4214469192
  H         4.9153446981        9.9333826455        1.9019546222
  H         4.5131412398        9.9612017823        0.1713267083
  H         3.3830830727        9.1174383145        1.3110160561
  C        14.0553221877        0.5656229858       -6.0073217286
  N        13.7953600905       -0.7668199060       -6.0622397725
  O        12.7337022437       -2.3731139163       -4.6765776156
  S        14.5425570403        1.4631715732       -7.4153058010
  C        13.8834792546       -1.5876187692       -7.2890567432
  H        14.1752521690       -2.6233696623       -6.9536461862
  H        14.7316459449       -1.2107668162       -7.9391554832
  C        12.4697155025       -1.6582381129       -7.9419088480
  H        12.5781695801       -2.2478816834       -8.8568068651
  H        12.0540951483       -0.6768873636       -8.1864459275
  H        11.6995677909       -2.0665892268       -7.2891911798
  H        -2.0595705844       12.4426973974       16.6734984768
  C        -2.1104691688       13.4590205970       16.3171496372
  H        -1.0624261372       13.6199315620       16.1726559733
  C        -2.6919727901       14.4370569712       17.4100331863
  C        -2.7466423057       13.6421410190       14.9098750307
  C        -3.1782038346       13.7925214087       18.7266499463
  H        -1.9860286860       15.1834004467       17.7580774852
  H        -3.4207769402       15.0092626524       16.8183117929
  H        -2.5866447964       12.7504659346       14.3421168756
  H        -3.8783403742       13.6502008276       14.9661520441
  H        -2.3404746587       14.5565849545       14.4808255301
  C        -2.0689292173       13.2985103630       19.6525614691
  H        -3.7644768951       12.9547949589       18.4760268223
  H        -3.8310687011       14.5194847102       19.2117088998
  C        -2.4722101985       13.2638635278       21.1775845419
  H        -1.7807762577       12.3337027028       19.3595353357
  H        -1.1565486444       13.8571750423       19.4452809382
  C        -1.4585999213       12.6875880857       22.1414077458
  H        -3.4165951579       12.7275117611       21.2969330176
  H        -2.6621349263       14.2647594717       21.5730290166
  C        -0.2652275221       13.6632247047       22.3713315650
  H        -1.9692443650       12.5741884927       23.0777549942
  H        -1.0904523615       11.7421565848       21.7459664766
  C         0.9688061948       13.1227159080       23.1757964192
  H         0.1011216672       14.0653080063       21.3976239592
  H        -0.6240747338       14.4614873244       23.0728110895
  C         1.4631503209       11.8462333361       22.5231542537
  C         0.6229140608       12.4160739934       24.4203296681
  C         2.0720535741       14.1093660447       23.4524143472
  C         1.3613993909       10.7136712082       23.3609990268
  C         1.9047555837       11.4939381995       21.2440888674
  C         0.7607152677       11.0921750671       24.5319470748
  C         0.1418521956       13.0857503188       25.5854710813
  H         2.1482635764       14.8444763347       22.6386671956
  H         1.7431127099       14.7943144322       24.2310475721
  C         3.5442258385       13.4881090821       23.7529163275
  S         1.8932639642        9.2787089349       22.5927396833
  C         2.2200301656       10.1543456083       21.1110344254
  H         1.8329692947       12.1687643932       20.4106774059
  C         0.2987279427       10.4853035260       25.6636124770
  H        -0.0912410852       14.1337283307       25.4777661545
  C        -0.2226960648       12.4556452222       26.7188386313
  H         3.7884772631       13.0666081234       22.7592877184
  H         3.5797214959       12.7600443826       24.5279592910
  C         4.6495128525       14.4158024290       24.2677369332
  C         2.5995003173        9.3989183925       19.8410914361
  C        -0.1628903598       11.1255000973       26.8184526932
  H         0.2900670260        9.3649590974       25.6940056895
  C        -0.7288483537       12.8541345630       27.9495428915
  H         5.3942011050       13.8512988511       24.7342565760
  H         4.2606312050       14.9489653077       25.1346785946
  C         5.2464048002       15.3498046296       23.2517974375
  C         2.3235681905        7.9867669019       19.5987881563
  C         3.3253029364       10.1689723368       18.7465590679
  C        -0.6306047355       10.3775916510       28.0659135145
  C        -0.8265337729       11.7508320491       28.7577289558
  S        -0.9347278818       14.2947751324       28.7735076579
  H         5.8259061663       16.1416722724       23.7524155249
  H         4.3422753443       15.8707224979       22.7454443558
  C         6.1753664137       14.7301362550       22.2041774469
  N         1.8171224604        7.1078065549       20.5518352161
  C         2.6248870496        7.4202436380       18.3774775578
  C         3.4488362977        9.5482376897       17.4658901476
  H         3.6714818932       11.2532513484       18.8606968604
  C         0.5930128289        9.5166072265       28.7066164447
  C        -1.8951750420        9.6351633442       27.9189265036
  C        -1.1179949082       12.0845934462       30.0807015895
  C        -1.3398989448       13.4452823691       30.1779616430
  H         7.0472804256       15.3547893576       22.0249272614
  H         6.4787636125       13.7384627936       22.5056398605
  C         5.4983613423       14.4600997947       20.8617082690
  S         2.0462771378        5.6167969769       19.9952080543
  N         2.5049374433        6.0559841348       18.4616716747
  C         3.1159261599        8.0757779321       17.2596820021
  H         3.7895716034       10.1966601657       16.6692342800
  H         0.8725623213        8.8218869411       27.8950836014
  H         0.2999962577        8.9715897856       29.6958136476
  C         1.9469949045       10.3092706854       29.0110249338
  H        -1.8193670144        8.9172972302       27.1301383584
  H        -2.1363913520        9.1618727181       28.9215409426
  C        -3.1252689725       10.4052347245       27.5021684784
  H        -1.0571142732       11.3992073839       30.8640113962
  C        -1.5481510081       14.2546035882       31.5028362553
  H         5.6557479786       15.2329442463       20.1297939526
  H         4.3977075595       14.6086774452       20.9926819704
  C         5.9871921181       13.2238758336       20.2346415785
  C         3.2395882965        7.3302681224       16.0657195281
  H         2.2538657314       10.8077793959       28.1161102049
  H         1.8435490457       11.0311327339       29.8250232574
  C         3.1275929440        9.3800566296       29.4672537577
  H        -2.9372108632       10.9698217135       26.6219940410
  H        -3.3985241298       11.1919013712       28.1944990441
  C        -4.3514512469        9.5018552699       27.2557267117
  C        -1.7095668321       15.6833053862       31.6340986473
  C        -1.5822469160       13.5104921386       32.8035463646
  H         5.7451089330       12.3155879932       20.7102307311
  H         5.3634937650       13.1528214741       19.4147427121
  C         7.4122234756       13.1687996167       19.7749155443
  H         2.9109309586        6.2631719760       16.0153057324
  C         3.6794530043        7.6640634812       14.8146839252
  H         3.2469365247        8.6965816252       28.6208482675
  H         3.0695537765        8.8046669368       30.4161655389
  C         4.4109605107       10.1249407607       29.5100971755
  H        -4.1344777753        8.6711504582       26.6034835592
  H        -4.6494850481        8.9369662659       28.2230427049
  C        -5.5544067723       10.2520939529       26.7989208731
  N        -1.6745271881       16.5051528952       30.5316940886
  C        -2.1117807617       16.3441481945       32.8181983322
  C        -1.9710945657       14.2006770034       33.9674032247
  H        -1.3973311344       12.4127581671       32.7844620143
  H         7.5299257087       12.1750443846       19.3770166973
  H         7.4734433440       13.9766966047       18.9714285305
  H         8.0731985446       13.2291735090       20.6743146443
  S         4.1369281120        9.2414285579       14.2115753905
  C         3.7968790113        6.6288990575       13.7736924206
  H         4.4370171622       10.8486942133       28.7071425371
  H         4.4294888872       10.8258621138       30.3824606642
  C         5.6289144325        9.2222692093       29.5821035394
  H        -5.1039995678       11.0864790665       26.2735418403
  H        -6.0534245364       10.6935741168       27.6536205266
  C        -6.5261898239        9.4799799636       25.8812042036
  S        -1.9094349607       18.0364498533       30.9436772964
  N        -2.2952410708       17.7536526587       32.5211313654
  C        -2.2858862851       15.6579326639       34.0339722521
  H        -2.0723329010       13.5044814719       34.7879918268
  C         4.3599807374        8.5199953595       12.6570573264
  N         4.2335485312        7.1734955439       12.6439202925
  O         3.6177379979        5.4028654772       13.9608769926
  H         6.5619593319        9.7757864915       29.4033847864
  H         5.6875692759        8.5203525121       28.8308233490
  C         5.7142449682        8.6756760031       31.0354664397
  H        -5.9613517260        9.0453617095       25.0320677018
  H        -7.0098046670        8.6717032774       26.3174029282
  C        -7.5598813516       10.4985889309       25.3853841420
  C        -2.4914826193       16.4388412925       35.2060246584
  S         4.7654486612        9.4322256087       11.2276540029
  C         4.4502649631        6.2640189538       11.4762362983
  H         5.9433503980        9.5235411270       31.6966619703
  H         4.7982896952        8.2109491621       31.4563244879
  C         6.8520842327        7.6297688930       31.3052635363
  H        -7.3669002405       10.9698308165       24.4744506976
  H        -7.6188990346       11.3723091859       26.0439811019
  C        -8.9272960781        9.8219290840       25.2991821271
  H        -1.9929789821       17.3883906721       35.2141437773
  C        -3.0553782520       16.0933440619       36.3978695338
  H         5.2176808951        6.7473639084       10.8126287190
  H         4.8423910492        5.3201203515       11.6624973380
  C         3.1341476048        6.0493344949       10.6506983428
  H         7.0703093644        7.4754646617       32.3314969640
  H         7.8192874732        8.0257820998       30.9873989457
  C         6.4110353777        6.3323000201       30.6619650094
  H        -9.6474793524       10.3154012393       24.6946688914
  H        -8.7217267263        8.8613573332       24.8634129349
  C        -9.6447937695        9.7499293169       26.5986530846
  S        -3.6162482712       14.5367938291       36.9510849716
  C        -2.9907463622       17.0968920952       37.4813622391
  H         3.0625060130        6.5958489571        9.6924397649
  H         3.1359556296        5.0584627109       10.2967340451
  H         2.3081625787        6.1413495035       11.3466071360
  H         5.5275343241        6.0028711170       31.2346288590
  H         7.1275057292        5.5445615772       30.8273752244
  H         6.1645257742        6.3749817556       29.6174550080
  H       -10.0293135655       10.7008310716       26.9162433145
  H        -9.1342586374        9.3255521244       27.4011955530
  H       -10.5676241707        9.1753927442       26.4185808238
  C        -3.9182180115       15.2914004206       38.5000819751
  N        -3.6787330709       16.6114796981       38.5509241049
  O        -2.6532668209       18.2433766893       37.4252015891
  S        -4.6235715081       14.4305374684       39.8316225515
  C        -3.6602838437       17.3490644357       39.9016983963
  H        -3.6861403393       18.4089857366       39.7205449973
  H        -4.5004270269       17.0069683056       40.5061358417
  C        -2.3828829092       16.9904995749       40.6412745523
  H        -2.6142817237       16.0195995365       41.0918065305
  H        -1.5680166897       16.8610562349       39.9050628870
  H        -2.1127006366       17.6716019244       41.3690483660
