352
i=
  H         3.1331679568        3.5526303824       12.8965526828
  C         3.4154058392        2.5480858042       12.7130466096
  H         3.0165880213        1.9726925878       13.5745141880
  C         2.7749945827        2.0661287654       11.3626923540
  C         4.9576211580        2.5995283595       12.8179519478
  C         3.6444011854        2.2564504278       10.1444193498
  H         1.9266989116        2.6584642596       11.0804788906
  H         2.4078982023        1.1332919821       11.4415658934
  H         5.2254536580        2.9489548417       13.7912406102
  H         5.4558574101        3.2995322145       12.1411458866
  H         5.3237990041        1.5501436219       12.7369943628
  C         4.5857461602        1.1308006759        9.9435754830
  H         3.1295690816        2.5260655724        9.1916830281
  H         4.1506351818        3.2306953879       10.3091305138
  C         5.3732671048        1.4678249263        8.6560162873
  H         3.9823961456        0.2684192809        9.7068693149
  H         5.1991311416        0.7606817094       10.8042427184
  C         6.5384957466        2.4477980414        8.7193606502
  H         4.7097387282        1.9077596662        7.8650118909
  H         5.6958511964        0.5360389934        8.2835453668
  C         7.7590154344        1.8018201477        9.4149399784
  H         6.8358992011        2.8205498288        7.7684049373
  H         6.3683411050        3.3781611107        9.3241452423
  C         8.9637794810        2.7117829389        9.4977215877
  H         8.1189159190        0.9784699366        8.8170830064
  H         7.3735093032        1.3129424136       10.3466479527
  C         8.6097032249        4.1159039478       10.2163605939
  C         9.3853172300        3.3876677491        8.2312040634
  C        10.2052734918        2.0238106055       10.2157649928
  C         8.7949220770        5.2243128651        9.3411599833
  C         8.2078107497        4.5446515363       11.5095420324
  C         9.3327782917        4.7767528368        8.1445144811
  C         9.8550998701        2.7839285016        7.0761926964
  H         9.9264695717        1.6683585200       11.1926891093
  H        10.4605873084        1.1170661547        9.7213248257
  C        11.4625714476        2.8273211200       10.4045899692
  S         8.4050459543        6.7403465794       10.0882421685
  C         8.0427434310        5.8638748070       11.6097415563
  H         8.0079324116        3.8605535928       12.2766785981
  C         9.7373071205        5.4258065060        6.9969477248
  H         9.7773554518        1.6686510771        7.0579637378
  C        10.2563383834        3.4554644148        5.9636093061
  H        11.0694195282        3.7900239909       10.6435295495
  H        11.9687484920        2.9028433770        9.4132980425
  C        12.3710897130        2.2459713155       11.4860936512
  C         7.7360282148        6.6595634498       12.8559545084
  C        10.2443334319        4.7868848939        5.8358936720
  H         9.5473100160        6.4661721989        7.0350038906
  C        10.6915706756        3.0418142992        4.7579346263
  H        13.1257460691        2.9901708654       11.5308180665
  H        12.8167560826        1.2322726318       11.1639260864
  C        11.7618928312        2.0816775100       12.8990131131
  C         7.7574789391        8.0416707065       13.0470127290
  C         7.4354073415        5.8543573149       14.0778171832
  C        10.5769384019        5.5122533421        4.5888978385
  C        10.8191583587        4.1151752011        3.8937052712
  S        11.1031578399        1.4959253737        4.0991853588
  H        11.0671932134        2.8297272201       13.1608988589
  H        11.1401572142        1.2269603215       12.8382850423
  C        12.7277335037        1.6466467870       14.0530271586
  N         8.2124520795        8.9334622056       12.0987447017
  C         7.4265533573        8.6642337817       14.2391273226
  C         7.1785832645        6.4486220762       15.2735917854
  H         7.3345095157        4.7882278417       14.0075159566
  C        11.8867595082        6.2086671694        4.6605404172
  C         9.4677012097        6.3457144005        3.8859751255
  C        11.1059442561        3.6802351208        2.6000793411
  C        11.3018051199        2.3050847704        2.6346131524
  H        13.6365397442        2.2431947928       13.9370430860
  H        13.0172829945        0.5958028450       13.9831827943
  C        12.0886051429        1.9507440147       15.4670483529
  S         7.9969681717       10.4652232520       12.6346688780
  N         7.6101548031       10.0393814041       14.1756158012
  C         6.9620416896        7.9225566775       15.3675385996
  H         6.8422247776        5.8589488235       16.1159818018
  H        11.7590362260        7.1653916075        5.1699185155
  H        12.0988978402        6.5120348001        3.5885066328
  C        13.0799605230        5.5015178154        5.2467422880
  H         9.2086278846        7.0543086170        4.6658740619
  H         9.7830503483        7.0463945919        3.0808361963
  C         8.2671524074        5.4599325134        3.5474465754
  H        11.3012553272        4.3893981196        1.8232372581
  C        11.6861274362        1.5905420868        1.3711821493
  H        11.7537071603        2.9640616034       15.4085247224
  H        11.2727666533        1.3961661247       15.9287114278
  C        13.2613993930        2.0147381796       16.5260942197
  C         6.8275080090        8.6598290262       16.6096718182
  H        12.8872457420        5.1724145886        6.2949890513
  H        13.3245321220        4.6653560345        4.6451890444
  C        14.2807925136        6.3866889328        5.2163460464
  H         7.9496514489        5.1368597934        4.5400993360
  H         8.5089730041        4.5895669316        2.9842714619
  C         7.1613471129        6.2535248249        2.8619196996
  C        11.7814656218        0.1875458306        1.2243549998
  C        12.0305396178        2.3296225235        0.1013897636
  H        13.9119731625        2.7603940443       16.2325393730
  H        13.9227464898        1.1772687634       16.5464439769
  C        12.7776273770        2.2736807476       18.0055442293
  H         6.9618541069        9.7843206903       16.4998348696
  C         6.5185498290        8.1140225434       17.8679649565
  H        14.1678322811        7.1531512872        5.9910159530
  H        14.3190103537        6.8600228410        4.1944442878
  C        15.4344978545        5.5391789825        5.4382494562
  H         6.9160193407        7.0529001361        3.5939115654
  H         7.5624859920        6.8327268688        2.0720452118
  C         5.8878906976        5.4738553022        2.4676167521
  N        11.6263061455       -0.7759052649        2.3152226366
  C        12.1116796221       -0.4575373679        0.0450085606
  C        12.3531131040        1.7080994820       -1.0841676095
  H        12.1167150378        3.3928202378        0.1675396761
  H        12.0209619115        1.4563222908       18.2487492264
  H        12.3742958218        3.2402890711       18.2105186985
  H        13.6460127552        2.0343094406       18.6847023189
  S         6.0597755353        6.5125255129       18.4226291272
  C         6.4171048379        9.1626927515       18.9335851974
  H        15.1317074520        4.7816907353        6.1523633006
  H        15.6137705277        5.0719631990        4.4799813864
  C        16.7072191108        6.1477926577        6.0298669680
  H         5.2017156331        5.2726538176        3.3010325268
  H         6.1386945074        4.4346325557        2.1292709020
  C         4.9816573255        6.2173436373        1.5238327159
  S        11.7323686353       -2.2729536251        1.6756473657
  N        12.1380298978       -1.8293593847        0.1713354562
  C        12.3967473764        0.2141573764       -1.1433022227
  H        12.6291177988        2.3686257911       -1.9123963442
  C         5.7533588891        7.2949863899       20.0252439851
  N         5.8685373834        8.6501854184       20.0629178650
  O         6.7328613716       10.3194575223       18.8065055355
  H        17.1973827587        6.5761896364        5.1693335437
  H        16.5319032305        7.0294751255        6.6413942173
  C        17.6821687890        5.2075882704        6.7622724845
  H         5.6478439233        6.5399893231        0.7145783745
  H         4.2926532882        5.5473405151        1.0314388333
  C         4.2600355091        7.3809328577        2.0719281536
  C        12.6476258723       -0.5847482897       -2.3213935505
  S         4.9556943956        6.5359674272       21.4517211991
  C         5.8586116907        9.4648803032       21.3084196120
  H        17.1531072465        4.9870096134        7.6983209126
  H        17.9339268974        4.2605599398        6.2208116449
  C        18.9882181575        5.8951299090        7.1366084572
  H         4.6893798082        7.7651655580        3.0114461952
  H         3.2588346339        7.1573335217        2.4416733653
  C         4.3479166578        8.5669914594        1.1826370428
  H        12.3023026149       -1.5900193588       -2.2606883783
  C        13.1843772607       -0.2064676953       -3.5583041240
  H         5.1781964397        9.0292593128       22.0612385876
  H         5.4514521013       10.4765875764       21.0212738285
  C         7.3326340394        9.6572449966       21.8409567643
  H        19.2628991204        5.6006973438        8.1581982977
  H        18.8774766319        6.9935548350        7.1329133304
  C        20.0713597447        5.6768841218        6.1173997508
  H         5.3846056375        8.8013506825        0.9138692306
  H         3.8703954242        8.3890425526        0.2379085916
  C         3.7215975235        9.7706109880        1.8741646842
  S        13.7944777665        1.2877550239       -4.0287966186
  C        13.2491784246       -1.1720058072       -4.6614299883
  H         8.0433774587        9.5835855483       21.0827183199
  H         7.6192805659        8.9804727913       22.6525672924
  H         7.4621026834       10.7292968130       21.9912129686
  H        19.8372100229        6.1739339548        5.1446171432
  H        21.0001535931        6.1353369405        6.3499828003
  H        20.2186075586        4.5954247290        5.8848757565
  H         4.2369994165       10.0079386338        2.7825098899
  H         3.7274739110       10.6413159173        1.1275617157
  H         2.6461225837        9.4976959957        1.9994319863
  C        14.1278740573        0.6252563671       -5.6272148097
  N        13.8617001268       -0.6809579751       -5.7180611969
  O        12.8833719114       -2.3339584715       -4.5467188239
  S        14.7593165124        1.4645510964       -6.9991833374
  C        14.1372457697       -1.4076935403       -6.9144369321
  H        14.2985456553       -2.4990291284       -6.6506507617
  H        15.1062475966       -1.1119791724       -7.4181248866
  C        13.0475633915       -1.4373730475       -7.9104030021
  H        13.2532602129       -2.3086096457       -8.5605550932
  H        13.0379822363       -0.5293538158       -8.5030197934
  H        12.0775492222       -1.4818360944       -7.4145133082
  H        -0.9446134227       13.6617039723       16.2305267911
  C        -2.0115452727       13.9332134045       16.1859290117
  H        -1.9071102637       14.7637986037       15.4672264992
  C        -2.3879020044       14.4813355182       17.5620932863
  C        -2.8627683964       12.7246649326       15.6351014754
  C        -2.5790378949       13.4323878178       18.7193183535
  H        -1.6452532066       15.1945342841       17.8454594415
  H        -3.3476824762       15.0634751204       17.4575978406
  H        -2.6264057333       11.7544384322       15.9679918318
  H        -3.8863145308       12.8034740237       16.0623286473
  H        -2.9530120512       12.7544086225       14.5489819421
  C        -1.5559332384       13.4270889049       19.8536840073
  H        -2.4934814785       12.3750413206       18.3690533298
  H        -3.6039763695       13.6402420255       19.1249202690
  C        -2.2034809747       13.3792299261       21.2376627709
  H        -0.9563200110       12.5446803365       19.6767153799
  H        -0.8509425245       14.2715895657       19.6925714620
  C        -1.2536815868       12.8472900568       22.2450824231
  H        -3.1861725084       12.7839052829       21.3250404380
  H        -2.4383733050       14.3895907760       21.5574309306
  C        -0.0924557959       13.7606275217       22.5697588382
  H        -1.8740128525       12.6401927052       23.1345640190
  H        -0.8978761643       11.8963028121       21.8338457905
  C         1.1291923602       13.0869912321       23.2607766501
  H         0.3598684563       14.3531205001       21.7360431703
  H        -0.4931647716       14.5674570500       23.2350123016
  C         1.5466478156       11.7659820743       22.4922970339
  C         0.7988789936       12.3734657747       24.4939286228
  C         2.2636237071       14.0819708745       23.5811581030
  C         1.3944146006       10.6845371554       23.3346230509
  C         2.0373761635       11.3994045567       21.1960512215
  C         0.7815423157       11.0508720758       24.5802198467
  C         0.3537116588       13.0024097799       25.6566052875
  H         2.5502413267       14.7163107821       22.7607190290
  H         1.9239258259       14.7371554445       24.3455384598
  C         3.5459888374       13.4523063185       24.0328366729
  S         1.8730395938        9.2083383633       22.6140494994
  C         2.2012766396       10.0788362481       21.1870495997
  H         2.2554112622       12.1529706640       20.4707455159
  C         0.3443241779       10.3949795666       25.7207985917
  H         0.3367320776       14.0892726216       25.5798790827
  C        -0.0697749405       12.3812611128       26.8222110076
  H         3.8025435052       12.8183314223       23.1936846802
  H         3.3314461858       12.8585105959       24.9224855624
  C         4.6219576911       14.5026424820       24.2021436351
  C         2.6444934957        9.3513894438       19.9853677103
  C        -0.1488055818       11.0556047720       26.8818565404
  H         0.5746676551        9.3083341104       25.8208142497
  C        -0.5579503172       12.8019601996       28.0765161334
  H         5.4726512664       14.0778730719       24.7508990877
  H         4.3135088082       15.3837955771       24.8386812337
  C         5.3077132056       14.9704361019       22.9263405764
  C         2.4895853432        7.9599767569       19.7388897902
  C         3.0889681555       10.1884330208       18.8195350492
  C        -0.5705252502       10.4280611207       28.1770763142
  C        -0.8588203937       11.6934571302       28.8548259150
  S        -0.7704334609       14.2507343077       28.9400053617
  H         5.9844386106       15.6702299544       23.3557430027
  H         4.6622567712       15.7159966431       22.4511516565
  C         5.8777676068       13.8298921084       22.0533582441
  N         1.9443080087        7.0193449180       20.6432676651
  C         2.7760769364        7.3725734917       18.5221060973
  C         3.3532828184        9.5930002475       17.5258277843
  H         3.3225029188       11.2742806261       18.9965419125
  C         0.6650169159        9.6847954443       28.8874683492
  C        -1.7919159431        9.4732455247       28.0137074219
  C        -1.2700327477       12.0308219347       30.1514869439
  C        -1.1710676405       13.3811884331       30.3621838219
  H         6.9074056604       14.1433385992       22.0431700664
  H         5.6866638652       12.8803381431       22.5391090266
  C         5.1123094198       13.7253555824       20.7189950986
  S         2.0692423361        5.5577239588       19.9703341314
  N         2.5277152717        6.0364633309       18.4850565446
  C         3.1597824688        8.1340058991       17.3289710102
  H         3.6731210362       10.2472318554       16.6794219525
  H         1.0240929126        8.8639095511       28.3705567905
  H         0.3171377433        9.2294138392       29.7714469352
  C         1.8139475981       10.6776657051       29.1356368845
  H        -1.5349177138        8.7227293713       27.3189215185
  H        -2.2432937659        9.1654473844       29.0014199619
  C        -2.9211038771       10.0700750493       27.2355997442
  H        -1.5030406805       11.2552438704       30.8113985232
  C        -1.4397867491       14.1584094907       31.6127336789
  H         4.9182841821       14.7417871772       20.4116670081
  H         4.2022293984       13.1489409549       20.8446830637
  C         5.9815272653       13.0918813528       19.6263967941
  C         3.4964815871        7.3313093970       16.1624419931
  H         2.2091075793       11.1612605758       28.2378931673
  H         1.5086030306       11.5447887787       29.7578770678
  C         2.9895519619        9.9486742964       29.8601078180
  H        -2.6563205488       10.1953191038       26.1747468680
  H        -2.9968563430       11.1400913614       27.6131583849
  C        -4.2766105618        9.3718192805       27.5207749751
  C        -1.4243474498       15.5205793572       31.7636084815
  C        -1.7964684657       13.4513679546       32.8102181768
  H         6.7533544284       12.4186933890       20.1103884409
  H         5.5187949606       12.3695640305       18.8660721752
  C         6.8501554283       14.1839064465       18.9178389322
  H         3.3022248396        6.2819112704       16.2107021904
  C         3.7492566307        7.7456282692       14.8913546115
  H         3.4332683901        9.4140332563       29.0430634037
  H         2.9059115053        9.1294829581       30.5720554782
  C         4.0902985049       10.8288476931       30.4087094655
  H        -4.1913287411        8.4076092519       27.1756714636
  H        -4.4610497387        9.3357909877       28.6058663523
  C        -5.4517994004       10.2046906088       26.8799029478
  N        -1.1542593579       16.4148881138       30.6765817557
  C        -1.7613987009       16.1932087335       32.9407364610
  C        -2.0730716522       14.1121556384       34.0136401066
  H        -1.8076491163       12.3633434671       32.7906297139
  H         7.6785397205       13.7072768275       18.4303773951
  H         6.3016048949       14.7681251854       18.1795801014
  H         7.3209579316       14.8863797584       19.6013980470
  S         4.2057413903        9.3668042032       14.3329449777
  C         3.6974741189        6.7533749589       13.7993924219
  H         4.0565855664       11.7552551830       29.8523534676
  H         3.8134509964       11.0474660793       31.4476290246
  C         5.4981008355       10.2336778390       30.0949041215
  H        -5.1006197657       11.1021705649       26.4192149395
  H        -6.1560008306       10.5421370362       27.6176607638
  C        -6.1334144525        9.4233091132       25.7206263917
  S        -1.3086404017       17.9329600391       31.2694921145
  N        -1.8614329292       17.6085427213       32.8334946436
  C        -2.0859362021       15.5746016231       34.1596861051
  H        -2.3780570845       13.5742282153       34.8761394797
  C         4.2618973593        8.6320016169       12.7778138278
  N         4.1842491656        7.2935798211       12.6820986421
  O         3.5392439529        5.5749054152       14.0192417561
  H         6.1258089794       11.1646939412       30.1590347790
  H         5.5921459211        9.8149723943       29.1350395114
  C         5.8198285237        9.1477292948       31.1342311125
  H        -5.2422906308        9.2898734163       25.0017456416
  H        -6.5726247542        8.5197087151       26.1233092442
  C        -7.1798114121       10.3800761804       25.0399347348
  C        -2.5173368023       16.3543912455       35.3006483078
  S         5.0231742209        9.3552176121       11.3422045482
  C         4.4675388631        6.5432933626       11.4301965187
  H         6.1544313227        9.7379710011       31.9983117598
  H         4.9460201117        8.4594184584       31.3163701751
  C         6.9801644890        8.3486929396       30.6227661598
  H        -6.9177610435       10.7645547649       24.0529125427
  H        -7.2555679468       11.4062410190       25.5382056119
  C        -8.5098962260        9.7518910742       24.9181848394
  H        -2.1856428704       17.3718797162       35.2696304213
  C        -2.9657758063       15.9735669609       36.5039536204
  H         5.3522081309        6.9953689272       10.7948686956
  H         4.6680660383        5.5306279537       11.6957154505
  C         3.2454512848        6.6598892270       10.4667694408
  H         7.7365974778        8.2147845181       31.3553072804
  H         7.4587887353        8.9121960174       29.8317440227
  C         6.5497354545        6.9786568011       30.0625571044
  H        -9.1163113666       10.1336802820       24.1027691664
  H        -8.1738109806        8.7177032616       24.7733278074
  C        -9.0995712493        9.9904038271       26.2909374365
  S        -3.4319115404       14.4655338700       37.0889783565
  C        -2.9112903408       17.0527090021       37.5182370692
  H         3.2110881808        5.8645227724        9.6712954560
  H         2.3798312986        6.6228499739       11.0715605799
  H         3.2481968983        7.6837467868       10.1070545761
  H         5.7108125898        7.1045864359       29.3483117517
  H         6.0702012006        6.4770462292       30.9295946429
  H         7.3888427566        6.4638072975       29.6566748397
  H        -9.1307793700       11.0832014207       26.4173021296
  H        -8.6202637605        9.4736027113       27.0519752970
  H       -10.1659324780        9.7205547107       26.2185568933
  C        -3.4392742115       15.2097451519       38.7494381365
  N        -3.4116848375       16.5674252934       38.6963778512
  O        -2.7683577990       18.2368881760       37.2365889019
  S        -4.0521762235       14.6062533448       40.3662588925
  C        -3.6176653233       17.5305866083       39.8335513442
  H        -3.6796819814       18.5775455980       39.5159121970
  H        -4.4127511934       17.1921270602       40.5105764843
  C        -2.3511620789       17.6059463337       40.5970602113
  H        -2.5508259869       17.0401757277       41.4851032752
  H        -1.5832225938       16.9863809388       40.0753545026
  H        -1.9591396235       18.5231763914       40.7608346972
