352
i=
  H         4.4064723805        0.8173174099       12.5106891493
  C         3.8906051580        1.8910452930       12.4760937599
  H         4.7397627278        2.6217959740       12.5605276849
  C         3.1151111082        2.0981541794       11.2373402239
  C         2.9750635995        2.0375936723       13.7599762216
  C         3.9425919338        2.5076937790        9.9672262831
  H         2.4894218044        2.9223369346       11.4566325557
  H         2.5547528141        1.2606415603       10.9518959629
  H         2.3536724442        1.1875358939       13.9011233257
  H         2.2462887259        2.8265150322       13.6610691688
  H         3.5915996579        2.0262662269       14.6879359459
  C         4.5576618837        1.3171106680        9.2412443309
  H         3.1781129156        3.0040810694        9.3052064672
  H         4.8154499098        3.1270371472       10.1771303818
  C         5.1809764527        1.7547556023        7.8281160482
  H         3.8140767360        0.5550472245        9.0988460994
  H         5.4638700582        1.0459012301        9.8034809585
  C         6.4214794834        2.5976338072        7.8884902573
  H         4.2855217832        1.9814679307        7.2466081254
  H         5.5644388776        0.8751235995        7.4511120236
  C         7.7379107511        1.9620995012        8.3858903919
  H         6.6910699663        2.7935425678        6.7814920962
  H         6.3592755454        3.5315409019        8.2765792932
  C         8.9664842961        2.8670838188        8.7128201974
  H         8.1177241680        1.1404553058        7.8211780178
  H         7.5069712706        1.5086252129        9.3331507837
  C         8.5679549587        4.1819930838        9.3976494190
  C         9.4997031235        3.5792588103        7.5151334186
  C         9.9066029170        2.1396195688        9.7055039899
  C         8.9416476724        5.2620105066        8.6557747331
  C         7.9139112231        4.5804143471       10.5496807959
  C         9.5383873331        4.9370379706        7.4898560702
  C         9.9217052912        2.9245029222        6.3783877489
  H         9.5102982261        1.6082706223       10.4515592565
  H        10.2614176826        1.3194130124        9.1553891990
  C        11.1202381726        3.0110667015       10.1446070825
  S         8.4265489817        6.8341032225        9.3666240998
  C         7.8544589812        5.9431278236       10.7319484148
  H         7.6559426494        3.8026561937       11.3133558479
  C        10.0308593411        5.5836993410        6.4525083145
  H         9.8854311716        1.8160006889        6.3458514540
  C        10.3593404596        3.4987301584        5.3347565464
  H        10.7424542779        4.0000818245       10.6225414237
  H        11.5366634204        3.2826858800        9.1898886793
  C        12.1903167126        2.3491552936       11.0676752141
  C         7.4196972116        6.6470105747       11.9741453502
  C        10.4180538483        4.8653506594        5.3009643594
  H        10.0996422640        6.6372493449        6.4192790749
  C        10.7844210317        3.1322722302        4.1385107311
  H        13.0238663079        3.1934820493       11.0985297779
  H        12.7044659216        1.4882505854       10.6716663324
  C        11.6713669767        2.2614340115       12.4407997207
  C         7.3928977180        8.0369294976       12.2735718447
  C         7.1176206980        5.6681616972       13.1109400155
  C        10.8192280674        5.5976816538        4.0512138832
  C        11.1244712819        4.1904743925        3.3821144621
  S        10.9803661043        1.6957044521        3.3391185011
  H        10.9480838630        3.0883580365       12.7331078885
  H        11.0771508579        1.4007424732       12.4247984279
  C        12.7174519771        2.2114091103       13.5077973266
  N         7.6002299903        9.0532720453       11.3487133344
  C         7.1188816166        8.4906218682       13.5689022816
  C         6.9419500382        6.2069599719       14.3796736975
  H         7.0261598361        4.5840592482       13.0621433556
  C        12.1180356903        6.3513707074        4.2542855003
  C         9.7345307338        6.3669691777        3.2843202557
  C        11.4946867328        3.7580792920        2.0474189051
  C        11.5043269319        2.4211405609        1.9194405889
  H        13.3672392816        3.1304253114       13.6439331866
  H        13.3098854588        1.2274205632       13.3047022161
  C        11.9914823336        2.1308502993       14.8451071131
  S         7.5114971978       10.4345039556       12.1211008126
  N         7.0947918152        9.9317683719       13.5165500658
  C         6.8454462414        7.6828980229       14.7122925869
  H         6.9126452973        5.4667058741       15.2888524288
  H        11.7840701914        7.1652215176        4.8870440297
  H        12.3835922858        6.8551441256        3.2364224218
  C        13.3058506277        5.6332351316        4.8002259705
  H         9.5158336899        7.3827329391        3.6458081600
  H        10.1697767435        6.7819163833        2.4197871631
  C         8.5896753175        5.5405442075        2.7617059681
  H        11.6581553094        4.4523073515        1.2843895513
  C        11.7434202620        1.7116730655        0.6514027857
  H        11.2755940357        2.8778887591       15.0382586585
  H        11.3395947450        1.1819074909       14.8780677851
  C        13.0114212952        2.0197416078       15.9998075806
  C         6.8267368268        8.2787270681       15.9498423677
  H        13.1463185213        4.9872774363        5.8146795430
  H        13.5552190279        4.8150892033        4.0895653803
  C        14.5025640433        6.4846967276        5.0346454895
  H         8.1342021879        4.9309010185        3.4965225798
  H         9.0258419601        4.8388065234        2.0890220120
  C         7.5274584364        6.4679102969        2.1834548131
  C        11.8345826024        0.3189767759        0.5061136466
  C        11.9198332348        2.5842171720       -0.5482169231
  H        13.5650375703        2.8946188312       15.9027735599
  H        13.6143466989        1.1528151759       15.7827273880
  C        12.2992476153        1.9987243203       17.2773375021
  H         7.0378210968        9.3815739557       15.9828080290
  C         6.6196498321        7.7586034931       17.2808287308
  H        14.4467894810        7.0423364090        5.9618717423
  H        14.6966387699        7.1757686697        4.1970535271
  C        15.7824624851        5.7847525383        5.2133809920
  H         6.7738070033        6.9118531478        2.9754049209
  H         7.9704354786        7.3860194471        1.7788664628
  C         6.5908112363        5.8035865731        1.1513346101
  N        11.5459536924       -0.6588359549        1.5185102978
  C        12.1292482213       -0.2550053226       -0.6731049103
  C        12.2681474848        1.9049380606       -1.7231162920
  H        11.7284276006        3.5966192371       -0.6445576738
  H        11.3594670101        1.4674379586       17.1406985389
  H        12.1383627225        2.9889329833       17.5908711017
  H        13.0414714948        1.5733830308       17.9932599570
  S         6.2668082972        6.1561262824       17.6586012224
  C         6.5045081896        8.7485281766       18.3895252894
  H        15.7320013655        5.0982938105        4.3201527653
  H        16.5656085547        6.4758868476        5.1044127356
  C        15.9675864843        4.9761230007        6.5490010304
  H         6.2261009231        4.9498244330        1.6696010221
  H         7.0696162773        5.3890221465        0.2998971340
  C         5.4185461332        6.6305749235        0.5514819697
  S        11.6774124716       -2.1168776519        0.8868868110
  N        11.9972343147       -1.6905025002       -0.6403304416
  C        12.3790106177        0.4284634519       -1.8568385633
  H        12.2511040708        2.3889836151       -2.6037937216
  C         6.0925624569        6.7079010559       19.3662089997
  N         6.2441980683        8.0671858121       19.5579509252
  O         6.6495316541        9.9630777901       18.2068316994
  H        15.7168107859        5.6717519195        7.3458147998
  H        15.2667715805        4.1794522896        6.6347475763
  C        17.3447925392        4.4825297022        6.7936818226
  H         5.4804707485        6.7833677962       -0.4869921918
  H         4.4706072155        6.0228728399        0.7466005431
  C         5.1665887772        8.0927054176        1.1251483029
  C        12.7428325459       -0.2844043262       -3.0652868858
  S         5.6229322064        5.7411720539       20.7090461627
  C         6.0847628713        8.7422334389       20.8921452588
  H        17.4776051241        3.6981881185        7.4280011843
  H        17.4796498194        4.1078256903        5.7795880166
  C        18.3477625004        5.5595327454        7.1583695595
  H         6.1322491524        8.7209718227        0.8497943500
  H         5.0019742849        7.9972516017        2.1160575267
  C         4.0224079939        8.7711982844        0.5048053946
  H        12.5771273171       -1.3469544075       -3.0311485305
  C        13.2986613297        0.0353768375       -4.2454290309
  H         5.3401635301        8.1442488033       21.5019570359
  H         5.6560480210        9.7062496158       20.9111484433
  C         7.4412618778        8.9355026695       21.5861688393
  H        18.8315184017        5.3138926783        8.1750600998
  H        17.7633798115        6.4642944569        7.3690547671
  C        19.4425764716        5.5078541622        6.1554262673
  H         4.1520904131        8.8705191565       -0.5670554123
  H         3.1110290114        8.2755778530        0.9253656677
  C         3.9127873975       10.2165815566        0.9178175376
  S        13.6707741624        1.5970574932       -4.7628345095
  C        13.4856829463       -1.0336957194       -5.3196764108
  H         7.5030847174        8.1907698393       22.3362089574
  H         7.4479255224        9.8712064473       21.9156937718
  H         8.2729625830        8.6422093857       20.8760762519
  H        19.1493938378        5.5722300779        5.1027593714
  H        20.1496708555        6.2349324942        6.4500407961
  H        19.8372069773        4.5475343539        6.3186213883
  H         4.2240180061       10.3546719298        1.9576328523
  H         4.4627762955       10.8917066960        0.2928508845
  H         2.8908531991       10.5625451988        0.6838596929
  C        14.1968993215        0.8181118227       -6.3229121634
  N        13.8818211431       -0.5199271891       -6.4961391579
  O        13.3637404020       -2.2490409212       -5.0464865089
  S        14.8248842094        1.8938090221       -7.6399083679
  C        14.3344935151       -1.1998972083       -7.7086067432
  H        15.3674043340       -1.4847534998       -7.6257106942
  H        14.1558387391       -0.5201005202       -8.4311810054
  C        13.4917110993       -2.4976430097       -7.8873051710
  H        13.9347940543       -3.2514274567       -7.2984743965
  H        13.2575536296       -2.6603361356       -8.8927996055
  H        12.4489979870       -2.2540093318       -7.8479853836
  H        -3.0570647512       15.4564389762       16.7755812600
  C        -2.9877408481       14.3479542506       16.5900217292
  H        -3.9140949135       13.8258128261       16.8684216938
  C        -2.0173915128       13.6770187699       17.6115061538
  C        -2.4988550790       13.9401079750       15.2578082037
  C        -2.6690560861       13.6195650800       18.9661574261
  H        -1.8797202120       12.6187414070       17.4320327216
  H        -1.1255952591       14.2730884877       17.5683332905
  H        -2.7601075515       12.9109642987       15.0972299847
  H        -3.0150606268       14.4645684845       14.5456320996
  H        -1.4219485784       14.0983086004       15.1571891066
  C        -1.6699967561       13.2166662414       20.0392244436
  H        -3.4174433303       12.8357371996       18.9588869699
  H        -3.0017798111       14.5485985194       19.0100766118
  C        -2.2562852413       12.9103080184       21.3524379261
  H        -1.3142299134       12.1951854747       19.8922934610
  H        -0.7088080345       13.9373112060       20.0639860360
  C        -1.2174665363       12.5963480364       22.3333285017
  H        -2.8492024104       11.9304541661       21.1672389254
  H        -2.9651280080       13.6997418670       21.5755263197
  C        -0.0495339954       13.5710040180       22.7176836436
  H        -1.6134050791       12.3010284703       23.2782508766
  H        -0.7797528127       11.6904101426       22.0108713747
  C         1.0789250667       12.9105208239       23.4401980302
  H         0.4788874725       13.9330925931       21.8067991364
  H        -0.4434223950       14.4070984729       23.2246713520
  C         1.5149313885       11.5292518981       22.7881297632
  C         0.6205803817       12.2082590847       24.6997992582
  C         2.2763979578       13.8542573746       23.6038736696
  C         1.2397158821       10.4508001067       23.6536067125
  C         2.0203528744       11.1643631052       21.5286514841
  C         0.7253832398       10.8690406956       24.8766136238
  C         0.2257457754       12.9066314264       25.8365531675
  H         2.5606023322       14.1499721884       22.6135221084
  H         1.9280796783       14.5686513351       24.3347161873
  C         3.6056006751       13.1824579479       24.0968031633
  S         1.5552302593        8.9375272005       22.9519391510
  C         2.0831226976        9.7536615604       21.3967567179
  H         2.1306681242       11.9412591204       20.7693794986
  C         0.1550608541       10.2757364157       25.9967643249
  H         0.1412289566       13.9523955372       25.7592591003
  C        -0.1922641954       12.3235070623       26.9937053681
  H         3.8619967250       12.1705925587       23.7842488647
  H         3.5114660565       13.1240773843       25.2296787925
  C         4.9009090604       14.0419828495       24.1016952634
  C         2.5506834532        9.0042614908       20.1475638570
  C        -0.3237334590       10.9623503859       27.1104221689
  H         0.0793628240        9.1994247954       26.0054850367
  C        -0.7543010714       12.7193684630       28.2154930155
  H         5.5226017994       13.5468708574       24.8173019402
  H         4.5173477836       14.8640568502       24.5801505286
  C         5.5983416354       14.3613469311       22.8044277432
  C         2.3766575543        7.5919102449       19.8973668902
  C         3.0270627636        9.7905624561       18.9816652291
  C        -0.8649307333       10.3635376542       28.3629901990
  C        -1.0988263069       11.6973488383       29.0451907150
  S        -0.9672839521       14.2653069510       28.9597215419
  H         6.2973283413       15.1631906017       22.9296135022
  H         4.7202046995       14.6093271596       22.0948633574
  C         6.1596441530       13.1351880572       22.2305064037
  N         2.0515253439        6.6277632531       20.9228730910
  C         2.5465746694        7.0518793509       18.6899739567
  C         3.0841706849        9.1876143349       17.6709288258
  H         3.2301123158       10.8297335424       18.8828659670
  C         0.0912416234        9.5564415700       29.2072674938
  C        -2.1847657928        9.6466473123       28.0772861710
  C        -1.4547756531       12.1582542147       30.2935097865
  C        -1.3537257497       13.4775341905       30.4430647696
  H         6.5456508189       12.3658677217       22.9706436823
  H         5.2699344235       12.6100507157       21.7487442042
  C         7.3628227382       13.4626488729       21.2489456518
  S         1.8461983116        5.2058497781       20.2452568473
  N         2.3162791579        5.6202793135       18.7927277497
  C         2.8158592699        7.7811978150       17.4684590951
  H         3.4602549531        9.7910990881       16.9247163608
  H         0.4125282929        8.7369884097       28.4570155935
  H        -0.4068137829        9.1732766377       30.0663699567
  C         1.3543089125       10.2774551351       29.7961910197
  H        -2.0370925822        8.6044929172       27.8524365422
  H        -2.5761165064        9.5291443562       29.0442498373
  C        -3.3132587024       10.4400015912       27.3328988799
  H        -1.7008142706       11.4491206417       31.0064024844
  C        -1.7114090336       14.2128861184       31.7509437039
  H         8.1769600304       12.8780677012       21.2287174583
  H         7.7378712497       14.4761632462       21.4697386151
  C         6.9707536132       13.4737228927       19.8003884369
  C         3.0493306280        7.1097098588       16.2791503813
  H         1.7409517711       10.9067538905       28.9060131029
  H         1.1450907989       10.9361338968       30.7866547658
  C         2.4820256961        9.4135077166       30.2242561847
  H        -2.8127864540       10.8908707700       26.4877260120
  H        -3.6580948481       11.2512326246       28.0656048122
  C        -4.5128973382        9.5587491272       26.8147676929
  C        -1.7895176775       15.6017793074       31.9090795110
  C        -1.8977707366       13.4854688007       33.0505889584
  H         6.5342963627       12.5230482545       19.5403456921
  H         6.0904334365       14.2337649826       19.8082945545
  C         8.1350706852       13.8388115698       18.8098884226
  H         2.6852757451        6.0972455161       16.3181482595
  C         3.4070062433        7.3993436714       15.0083001271
  H         2.7773753216        8.6874377992       29.3841688018
  H         2.1752823180        8.7460277209       31.0186484765
  C         3.8132625455       10.1912005855       30.5891694804
  H        -4.0271635864        8.7041361408       26.2142052119
  H        -5.0695525720        9.2168866396       27.7463656463
  C        -5.4699967494       10.3111151108       25.8951794600
  N        -1.6035586772       16.4724077875       30.8401401951
  C        -2.0514024209       16.2813974500       33.0902893557
  C        -2.2094742616       14.1509305436       34.2403053497
  H        -1.8425152956       12.3512285781       33.0607392157
  H         8.7721581920       14.6299420828       19.3468242615
  H         8.8076671057       13.0506150531       18.3945284863
  H         7.6241807277       14.2715735395       17.9035954871
  S         3.6001355192        8.9647019022       14.3120683227
  C         3.4510137669        6.3103168003       14.0141064734
  H         3.7730195963       11.2045964986       30.1126523884
  H         3.8483331389       10.3636235089       31.6450436169
  C         4.9573028270        9.2883787505       30.1446560724
  H        -4.9392307521       10.7882400715       25.1533873391
  H        -5.9806120797       11.0893801479       26.4641490933
  C        -6.5050154958        9.3694045685       25.3632601531
  S        -1.7565700619       17.9950930242       31.3481209811
  N        -2.1044685810       17.6675202643       32.8805331476
  C        -2.2948473256       15.6156033966       34.3483087233
  H        -2.4309167011       13.5374776014       34.9801238210
  C         3.9568396717        8.2398370545       12.7164299607
  N         3.6323448071        6.8599558100       12.7287801008
  O         3.0405325708        5.2225167007       14.1811368686
  H         5.9529985876        9.8680661143       30.3612404583
  H         4.8721649563        9.1733614951       29.1020979718
  C         5.1431898097        8.0267721244       30.8673232728
  H        -6.1684910539        8.7610158675       24.5097224090
  H        -6.9505460663        8.6768442113       26.0966207816
  C        -7.8212105176       10.0440056693       24.8006799072
  C        -2.4987980974       16.4083370849       35.5114632283
  S         4.4455663358        8.8814836337       11.1254343405
  C         3.5416297196        6.0570048014       11.4305818145
  H         5.4928248191        8.4442715450       31.8907969174
  H         4.1554504714        7.6133948705       30.9825922756
  C         6.0129016987        7.0253572239       30.1389742205
  H        -8.2293150823        9.5742956333       23.8591465813
  H        -7.4327889537       10.9859278132       24.7750336343
  C        -8.9979116874        9.9100197565       25.6953324924
  H        -2.3004037742       17.4400357482       35.4317781231
  C        -3.1282723688       16.0044593693       36.6934169003
  H         4.3348814008        6.3795347030       10.7023271561
  H         3.8203330001        5.0705489661       11.6561847536
  C         2.0487212465        6.0078349916       10.8335146026
  H         6.8927793679        7.5860180520       29.8341498805
  H         5.5128046937        6.7244038415       29.1668372384
  C         6.5144663487        5.9195308463       30.9742582525
  H       -10.0174377893       10.0335650151       25.1504957098
  H        -9.1754402978        8.8340180306       25.9318650000
  C        -9.0301106475       10.7129628559       26.9395682018
  S        -3.8326512022       14.4782115495       37.2008712445
  C        -3.1075539571       17.0950200620       37.8195069779
  H         1.5654466250        7.0375989696       10.5377620265
  H         2.0894014861        5.3930704124        9.8993194183
  H         1.2763132594        5.4830247475       11.4429619808
  H         5.7701525586        5.3360953515       31.5909594608
  H         7.1622494874        6.4296892883       31.7525406146
  H         7.3159200592        5.2507177824       30.5172702188
  H        -9.0311485406       10.2715559596       27.9142251827
  H        -9.7915651540       11.5028804979       27.0532104468
  H        -8.0177573305       11.1050544836       26.9619497100
  C        -3.7530424101       15.1431211342       38.8964705116
  N        -3.4819866644       16.4731802152       38.9332057394
  O        -2.6240041935       18.1974475314       37.6256533347
  S        -4.2856466424       14.1892420181       40.2647155720
  C        -3.3425196968       17.2988567063       40.2480645207
  H        -3.9386463199       18.2065464827       40.1544315841
  H        -3.7086366225       16.6318182983       41.0418361941
  C        -1.8951100435       17.7575052945       40.5569320383
  H        -1.5387347371       18.5308610615       39.8815852408
  H        -1.7965859765       18.1619735777       41.6028652452
  H        -1.0934013821       17.1385037697       40.2802832782
