352
i=
  H         2.5488115982        3.2795675619       12.1970291670
  C         3.2101596614        2.3793862980       12.2850128273
  H         2.7795690246        1.5983175930       11.6056511167
  C         4.5589679402        2.7318009503       11.6730911858
  C         3.1636240271        1.7709697691       13.6867213731
  C         4.6127136052        2.8842025946       10.1752007606
  H         5.2843978602        1.9698093328       11.9948246970
  H         4.8392357142        3.6401616784       12.1854157741
  H         4.1050373159        2.0248742326       14.2367551890
  H         3.2707798280        0.7087011137       13.7146689433
  H         2.3621663528        2.2168374446       14.2273719367
  C         4.8857400184        1.5677668169        9.4353786201
  H         3.7034783105        3.3394930158        9.8046915383
  H         5.4130011911        3.6630660693       10.0757670202
  C         5.5584861166        1.8172397892        8.0745195600
  H         4.0181991993        0.9911200516        9.1624230715
  H         5.4459941626        0.9498288262       10.1740523459
  C         6.9451354846        2.4096819957        8.1828371310
  H         5.0533742847        2.5742666178        7.4344577989
  H         5.6145353349        0.8545934318        7.4665841722
  C         8.0265269281        1.5974360924        8.8849246950
  H         7.2505258762        2.6649043731        7.1452850165
  H         6.9448557333        3.3729118439        8.7311566242
  C         9.2791476595        2.4389500650        9.2277082306
  H         8.4189505533        0.8733421273        8.2179001787
  H         7.7195341593        1.1156431471        9.7937679808
  C         8.9967592396        3.7970061119        9.9093405556
  C         9.8439799623        3.1480878620        7.9838732736
  C        10.3164456175        1.5892429029        9.9969762881
  C         9.3692480478        4.8739310226        9.0993747758
  C         8.3374677625        4.1714528208       11.0595607419
  C         9.8600263038        4.4800944345        7.8654021195
  C        10.2220056807        2.5193623379        6.7544585016
  H         9.8156171958        1.2644152783       10.9289166326
  H        10.4971125201        0.6918877154        9.4527447081
  C        11.5416428500        2.4714905546       10.3265234300
  S         9.0129962055        6.3452409894        9.8532365120
  C         8.3468019033        5.5277397325       11.1674852994
  H         7.8789546750        3.4609272003       11.6772992295
  C        10.2721299218        5.1377765012        6.7158007856
  H        10.1206638942        1.4853918341        6.7691631904
  C        10.5472562094        3.1486935425        5.5848774179
  H        11.3664440103        3.3131012448       10.8027830670
  H        11.9747085225        2.8174062262        9.4174104851
  C        12.4804638675        1.6608695559       11.3178618882
  C         7.9180979249        6.3172780743       12.3899081230
  C        10.6285752072        4.5120376020        5.5084561367
  H        10.3004613828        6.2225599447        6.6876898702
  C        10.8747369562        2.8027253454        4.2849864955
  H        13.4942835860        2.0647503969       11.2152467315
  H        12.4933840285        0.5895514645       11.0540975471
  C        12.0439084622        1.6528160643       12.8007840459
  C         7.9680539187        7.6801623595       12.5960368602
  C         7.5237697275        5.5228530677       13.5775205048
  C        10.9664235794        5.2135650267        4.2417415636
  C        11.0720692277        3.9030136200        3.4898688036
  S        11.0849862242        1.2609089719        3.5904920754
  H        11.1745364298        2.2581704529       12.9760441817
  H        11.7459634215        0.6748822312       13.0925486894
  C        13.2278692617        1.9795662992       13.7003967932
  N         8.3130548547        8.6231884687       11.5969585792
  C         7.7299459405        8.2626833562       13.8297178359
  C         7.2652249800        6.0905169659       14.8500899851
  H         7.4362244423        4.4515284187       13.5243221098
  C        12.3695163675        6.0569152779        4.3214551331
  C         9.8652430213        6.1561843743        3.7782202768
  C        11.4312107738        3.5095111694        2.2179835710
  C        11.5216091151        2.1537987538        2.1002729947
  H        13.6615449952        2.9763676029       13.3727118979
  H        13.9891735077        1.2791563125       13.6011898592
  C        12.8358646057        2.1395937755       15.2279989082
  S         8.3664725053       10.0885593399       12.2799706632
  N         7.9500156819        9.6596472217       13.7199754009
  C         7.4797860017        7.5612908995       15.0370278865
  H         7.2461412718        5.3607995272       15.6420858999
  H        12.2394799038        6.8553105614        4.9727009199
  H        12.5834438479        6.3908576639        3.2862561285
  C        13.4717758805        5.2351053981        4.8356450920
  H         9.5701581793        6.6817055082        4.6987273271
  H        10.1533059300        6.8769728890        3.0315866987
  C         8.6269954318        5.3095910316        3.3755187712
  H        11.8235136975        4.2270490353        1.5475405231
  C        11.7483934538        1.4494720056        0.8020225004
  H        12.3830654557        3.1251646724       15.2924780772
  H        12.0483760198        1.4588675854       15.4101606458
  C        13.9552600844        1.8668647486       16.2062413483
  C         7.2381546657        8.2829317654       16.2669845864
  H        13.3231950570        4.8285765182        5.8837542596
  H        13.6320903100        4.3726435596        4.2170721345
  C        14.8028775654        6.0303697359        4.7670048460
  H         8.2174616468        4.8608937910        4.2833435807
  H         8.8190246819        4.4432966356        2.7482050734
  C         7.4764892330        6.0618723065        2.6792595197
  C        11.8797489416        0.0715066319        0.5781013880
  C        12.0884207057        2.2100986188       -0.4156275043
  H        14.9033800206        2.2526954174       15.7636446266
  H        14.0900979819        0.8058540109       16.2465807774
  C        13.6972977065        2.5653118013       17.5776008092
  H         7.3196986048        9.3223241196       16.1191910633
  C         6.9816831497        7.9048874550       17.5587644644
  H        14.8121133303        6.9353820946        5.4113712249
  H        15.0075307086        6.3961637112        3.7434754725
  C        15.9511021561        5.2693201270        5.2443211163
  H         7.1610679543        6.7336421703        3.4597355900
  H         7.9794298310        6.6959866548        1.8970149777
  C         6.5465054844        5.0408674905        1.9376239592
  N        11.7838510416       -0.9038221735        1.5994093160
  C        12.2852299644       -0.5096500698       -0.6450657839
  C        12.4233764016        1.5908578371       -1.5971953222
  H        12.0701308995        3.2750276790       -0.3367203293
  H        14.5257513222        2.5393856686       18.2639261203
  H        12.8392686129        2.0287619712       17.9043116758
  H        13.4460639580        3.6169831595       17.4665519111
  S         6.8714892408        6.2638120294       18.0854010296
  C         6.7762149848        8.9014797238       18.6158118090
  H        15.6530372625        4.1858492237        5.4489537964
  H        16.6592619551        5.2156515099        4.3660726715
  C        16.8068440643        5.8236914541        6.4645241316
  H         6.4796497332        4.1352708492        2.5097817668
  H         6.8434532243        4.8660205630        0.9014390548
  C         5.0820302606        5.5294545454        1.8320491990
  S        12.0356856218       -2.3722398832        0.9507980876
  N        12.3638336203       -1.8972062362       -0.5710717161
  C        12.6349169156        0.1763498195       -1.7719730394
  H        12.4563425064        2.1641084215       -2.5033630511
  C         6.5330334399        6.9909585623       19.6538479321
  N         6.4438470794        8.3036928126       19.7951382835
  O         6.7190217704       10.1300092526       18.3142850885
  H        17.3510888862        6.6933081175        6.2168022459
  H        16.0628649345        6.0888918033        7.1317883665
  C        17.8094627553        4.8358785569        7.0738658027
  H         4.4502563238        4.7450513739        1.4313267090
  H         4.6234956670        5.9015793383        2.7264689809
  C         5.0351496874        6.7250844053        0.9750268402
  C        12.7878087199       -0.5779623518       -3.0029624991
  S         6.0788633251        6.1294949487       21.1522956739
  C         6.2806325740        9.0274199152       21.0069492842
  H        17.3776951240        4.4385935089        8.0170194942
  H        17.9377124682        3.9386684693        6.4701887716
  C        19.1870530415        5.5316137951        7.3010630412
  H         4.5640629890        6.4614027098        0.0207483300
  H         5.9822992650        7.0617112303        0.5574034897
  C         4.2641259317        7.9452224301        1.4811031819
  H        12.5896297682       -1.7002213406       -3.0115218913
  C        13.3450800872       -0.1631242622       -4.2026504760
  H         5.6453784501        8.5575844935       21.7437726768
  H         5.6505632755        9.7769373713       20.6719981318
  C         7.5321320267        9.4395583465       21.6807589842
  H        19.7675807272        5.0279157104        8.0772069618
  H        19.1023801474        6.5654723227        7.6401783756
  C        20.0486400268        5.6139754425        6.1127490688
  H         4.2603522230        8.7727838156        0.7824495809
  H         3.1780467634        7.7719329376        1.7156045716
  C         4.7734568634        8.6163207642        2.7167652506
  S        14.1504468107        1.2815959391       -4.5473806898
  C        13.3983116088       -1.1965871690       -5.2851758407
  H         7.6757679633       10.5375133689       21.6942687242
  H         8.4010025274        9.0063948368       21.1514477089
  H         7.5428410062        9.0785706310       22.6617621470
  H        20.1280848952        4.5248209932        5.8707963268
  H        19.4935844570        6.0687591161        5.2688493832
  H        20.9714676280        6.0333535400        6.3050611654
  H         5.7245455097        9.1543895251        2.4279304435
  H         4.0889057290        9.2243747947        3.1990317920
  H         4.9511185956        7.8843241748        3.4714926412
  C        14.4882171909        0.5120552151       -6.1263338025
  N        14.0759316834       -0.7231101494       -6.2652804964
  O        12.7488740817       -2.2331842134       -5.3288261567
  S        15.0367235744        1.3866320992       -7.5225409026
  C        14.3542938882       -1.5380109360       -7.4336307130
  H        14.7428314481       -2.5115588290       -7.1827247885
  H        15.3102731846       -1.1898104904       -7.7916853524
  C        13.2751672954       -1.3362952372       -8.5160860742
  H        12.3885243908       -1.0387042869       -8.0215826963
  H        13.0277469975       -2.3113349422       -8.9256055219
  H        13.4645604317       -0.5914866326       -9.2791671010
  H        -2.8637370454       14.9902176139       16.2407391453
  C        -3.0788274478       13.9632963834       16.4395465177
  H        -4.0965726382       13.8788269014       16.7841128344
  C        -2.1206115490       13.5441157233       17.5413441907
  C        -2.9749637399       13.1953064316       15.1471478818
  C        -2.7351611790       13.3987761976       18.9128011732
  H        -1.5282377827       12.6330042545       17.2470452559
  H        -1.3438885934       14.2484674965       17.5869903390
  H        -2.4281757427       13.7870139156       14.3625065767
  H        -2.4500744532       12.2103543102       15.1951560700
  H        -4.0221905142       12.9039887630       14.8649874336
  C        -1.8907467523       12.6103533073       19.8528495248
  H        -3.6300849595       12.8890462556       18.7860779995
  H        -2.9521055776       14.3506646870       19.4219042025
  C        -2.1519241012       12.9547339902       21.2934488013
  H        -1.8899645014       11.5907602990       19.7001754971
  H        -0.9041297338       13.1028676887       19.7253361235
  C        -0.8937563278       12.4729048388       21.9915668321
  H        -3.0384323719       12.3274803162       21.6392366027
  H        -2.4609706443       13.9803065539       21.4360340140
  C         0.1918425620       13.5252249570       22.2705140593
  H        -1.0813431474       11.8437343393       22.8689459675
  H        -0.4999082489       11.6715758513       21.3710005193
  C         1.5192458918       12.9003339901       22.8989802969
  H         0.5527266618       13.9563322809       21.3221406960
  H        -0.1550156983       14.3920205704       22.8837014064
  C         1.9384163859       11.5740510111       22.2926427848
  C         1.1375556119       12.3161401625       24.2403999648
  C         2.7246186920       13.8978745877       22.9458100780
  C         1.7122934110       10.4964227322       23.1405554655
  C         2.3551230103       11.1093515699       20.9966157864
  C         1.2208892697       10.9516946557       24.3481281987
  C         0.6795283798       12.9698551586       25.3523035288
  H         2.9947885424       14.4970660399       22.0236123757
  H         2.3028059991       14.7174166553       23.5396104898
  C         3.9908397740       13.3218948562       23.5948216924
  S         1.8301302465        8.9015293752       22.3595567118
  C         2.4231660775        9.7437273178       20.9498402836
  H         2.6060034728       11.8480408507       20.2692220450
  C         0.8744812652       10.2993417603       25.5108101952
  H         0.5493333167       14.0053380202       25.1751547434
  C         0.3185544766       12.3632735728       26.5224816604
  H         4.3890773469       12.4826295286       22.9404803868
  H         3.6828863518       12.7551993579       24.5265441868
  C         5.1386087510       14.2049153569       24.0135740670
  C         2.8607712182        9.0572136090       19.7279313910
  C         0.4273699084       11.0164636418       26.6548415774
  H         0.9077238937        9.2301316749       25.4628315012
  C        -0.1889938213       12.7826341628       27.7518080779
  H         5.8347610512       13.7000956728       24.6467363777
  H         4.7441160094       14.9123664516       24.6357949180
  C         5.8758295003       14.8646316596       22.8461873132
  C         2.8756474541        7.6629145164       19.5299764202
  C         3.2324522275        9.8741100655       18.5019641509
  C         0.0469779548       10.3591709938       27.9761351057
  C        -0.3104025605       11.6369155847       28.5934767860
  S        -0.4526021604       14.2524634421       28.5593048359
  H         6.4110890270       15.6421362480       23.3259447648
  H         5.0790771092       15.3016977370       22.2027007576
  C         6.8209110273       14.0776778751       21.9123965928
  N         2.7316920792        6.6613656504       20.5168694460
  C         3.1423991600        7.1012539884       18.2578454279
  C         3.5754458938        9.3038427773       17.3213958269
  H         3.4289556795       10.8750009628       18.6171555619
  C         1.2163402905        9.7045248428       28.6914983609
  C        -1.1362419711        9.3682667463       27.8728074071
  C        -0.6154893577       12.0335998178       29.9068838733
  C        -0.7828579642       13.3763844158       30.0348079472
  H         7.4935304466       14.7852725556       21.4493582631
  H         7.3765164209       13.3675418678       22.6042348461
  C         6.3477125382       13.2789606754       20.7465911717
  S         2.7641308204        5.2015147977       19.7842872812
  N         3.0159187611        5.7577804365       18.2530941798
  C         3.4683302982        7.8260621313       17.0450919651
  H         3.8805657676       10.0261283347       16.5946416419
  H         1.6053007382        9.0172342604       27.9955145482
  H         0.9260386381        9.0800095824       29.5163285368
  C         2.4095120567       10.5542198804       29.1982638863
  H        -0.9669286229        8.5653586751       27.1228217832
  H        -1.3175585437        8.8653567681       28.7892935838
  C        -2.3939322451       10.0517632760       27.4321022848
  H        -0.5856935714       11.2464746686       30.6841113199
  C        -1.0983001765       14.1132411005       31.2862245280
  H         5.7589079862       13.8042273949       20.0740207609
  H         5.7084521667       12.4621022253       21.0754794965
  C         7.5074967145       12.7467819455       19.9076856465
  C         3.7947707251        7.1970878358       15.8491795801
  H         2.9882389088       11.0479780532       28.4673042710
  H         1.9887257779       11.2505538080       29.9083962757
  C         3.3849500683        9.6279869846       29.9659749960
  H        -2.2059715223       10.5351951284       26.4161599475
  H        -2.6927833786       10.7417417802       28.1818622689
  C        -3.6980567118        9.2632365731       27.2253493381
  C        -1.1865294027       15.4981013114       31.4083613576
  C        -1.4792772905       13.3256558100       32.4229273546
  H         8.4269799931       12.9968310957       20.4327296777
  H         7.5180811368       11.6030715260       19.7363752278
  C         7.4100628101       13.4041930481       18.5199805641
  H         3.6979048923        6.1207392695       15.8967060938
  C         4.0568672571        7.6542484829       14.5552769949
  H         3.8758709660        8.9213649201       29.2254881645
  H         2.9049764694        9.0049519615       30.7079066462
  C         4.6650890959       10.4125115938       30.4122349231
  H        -3.5335454774        8.5515108658       26.3819026984
  H        -3.8804141626        8.5837996602       28.0777754340
  C        -4.8949971603       10.0266416485       26.9286557948
  N        -0.8385157473       16.4052604735       30.3338635429
  C        -1.5256074620       16.0880493394       32.6352647265
  C        -1.8819393448       13.8531205810       33.6733992781
  H        -1.3532645690       12.3008740468       32.4165670055
  H         8.0690500411       12.8247309364       17.8457044253
  H         6.4255286097       13.2386051778       18.1192196886
  H         7.5910938933       14.4446371854       18.5245920294
  S         4.3453729384        9.2385948580       14.0686267467
  C         3.9950716934        6.6802356808       13.3959674804
  H         4.8743850512       11.2190930824       29.7285871022
  H         4.3694584797       10.8267336361       31.3892594825
  C         6.0104181328        9.6783250842       30.6159791127
  H        -4.8037717047       11.0053116410       27.4501205993
  H        -5.7800640277        9.6069002052       27.4127738474
  C        -5.2423689724       10.0526120803       25.4394934566
  S        -0.9851830805       17.8607986806       30.9615430334
  N        -1.5227131929       17.5038014382       32.4568411137
  C        -1.9405375521       15.3616415509       33.7491245883
  H        -2.0418215250       13.1759799503       34.5022835023
  C         4.7048967863        8.5634781475       12.4239128053
  N         4.4121807750        7.2772665028       12.2593975986
  O         3.6647377679        5.4291795593       13.5964433861
  H         6.6113767065       10.1851856585       31.3275126015
  H         6.5123022735        9.7088278208       29.6827907444
  C         5.9014076065        8.1924925748       30.8745545891
  H        -4.3572418032       10.5137925566       24.9006338967
  H        -5.3743911817        9.0207391368       25.1041696990
  C        -6.3952798715       10.8579829735       25.1516812364
  C        -2.2409627470       16.1713363439       34.8934403501
  S         4.8318952178        9.4397649475       10.8858800339
  C         4.4338085315        6.5250034235       11.0167691038
  H         5.3228837190        8.0280307799       31.7781886499
  H         5.3960811128        7.7263479773       29.9986944058
  C         7.2564144692        7.6612978689       31.2730675885
  H        -6.2178423360       11.1830855431       24.1395842922
  H        -6.3856692338       11.7428888509       25.8615955974
  C        -7.6429546192        9.8956288986       25.2679129485
  H        -1.8646420768       17.1692866406       34.8738707738
  C        -2.7417090365       15.8387256387       36.1283134704
  H         5.0617429082        6.9273595667       10.2583230634
  H         4.7715707708        5.5389360463       11.1660153458
  C         2.9931875528        6.2911786426       10.5790314422
  H         7.5914308917        7.9312440835       32.2654150279
  H         8.0286093200        8.0532627368       30.6414791550
  C         7.4800109300        6.1343868625       31.2165884288
  H        -7.6219146311        9.0844646600       24.5245702554
  H        -7.5484440302        9.3130665820       26.2262400215
  C        -9.0171321498       10.5754209333       25.2446657492
  S        -3.2274675154       14.2491828099       36.6508368803
  C        -2.8757843647       16.8962570448       37.1486642121
  H         2.9612546970        5.7542265783        9.5745245328
  H         2.3888687457        5.7082969112       11.2474486962
  H         2.4833229299        7.2557528766       10.3502941042
  H         8.4994795007        5.9442529847       30.7858656313
  H         6.7676673270        5.6978776192       30.5607207441
  H         7.3478520990        5.6522463126       32.1934363600
  H        -9.1921210272       11.2861086851       25.9937085166
  H        -9.8990282067        9.9338302267       25.1985384679
  H        -9.1003099622       11.1105468887       24.3618389551
  C        -3.7112259569       15.0476680427       38.1630777589
  N        -3.3736926262       16.3597634678       38.2399750569
  O        -2.5934059211       18.0739907148       36.9269457442
  S        -4.3621922662       14.2281419276       39.6063063647
  C        -3.5194040962       17.0903216099       39.5916367448
  H        -3.8918123014       18.0511932987       39.4491722754
  H        -4.2700650122       16.6832469499       40.2474975131
  C        -2.1569585561       17.1135344671       40.2666872559
  H        -1.4092687021       17.1487543518       39.5188910562
  H        -1.9863102468       17.9269345051       40.9739477402
  H        -2.0546883851       16.2969959708       40.8599674470
