352
i=
  H         2.2109030798        2.3921792073       13.5987948313
  C         3.2142772055        2.3949893265       13.1551563964
  H         3.4101579894        1.3479438968       13.0308210213
  C         3.2723711147        3.1563185918       11.8201577280
  C         4.0637333379        3.0440058438       14.1829113217
  C         4.5562602033        3.1480537724       11.0034449338
  H         2.9609833447        4.1891147725       12.0131240575
  H         2.4537623011        2.8476461503       11.0928918817
  H         4.2967812531        2.3480566980       14.9738336880
  H         3.3881043209        3.7654233332       14.6563657877
  H         4.9635990600        3.5121362929       13.8175042811
  C         4.9445928791        1.7486360631       10.5157782374
  H         4.2844381950        3.8577793901       10.1398865286
  H         5.3455918225        3.7116408989       11.5170438216
  C         5.3870038576        1.8546425369        9.0102901329
  H         4.1101045188        1.1443604681       10.5674293260
  H         5.7323541013        1.2540329564       11.0534846675
  C         6.6511558198        2.6888444402        8.5643263637
  H         4.4720570879        2.1871516884        8.4408539921
  H         5.5830371727        0.8508394134        8.5760070522
  C         7.9676717766        2.0337374050        9.0405139414
  H         6.6567838085        2.7053048189        7.4672948145
  H         6.5656389506        3.7277175928        8.8443460188
  C         9.2185230294        2.9686429837        9.1107290147
  H         8.0195858959        1.1037650344        8.4611685099
  H         7.6525645669        1.7555343506       10.0635977818
  C         8.9904790913        4.3084218362        9.7504207443
  C         9.6986252622        3.5928378576        7.8621807810
  C        10.4347374778        2.2416003163        9.8058821972
  C         9.3369956193        5.4063132665        8.9699654109
  C         8.4362641740        4.7270127867       10.9570998254
  C         9.7432536822        4.9520257216        7.7478096711
  C        10.1313690563        2.9688066525        6.7195643932
  H        10.0403374077        1.7233189359       10.6919568909
  H        10.7637360687        1.4807590154        9.1785934699
  C        11.6798522405        3.1656522044       10.0635490435
  S         9.0836251790        6.9085353457        9.7412384738
  C         8.3854654904        6.1055381152       11.0916385308
  H         8.2859934682        3.9298291327       11.7190133312
  C        10.0484429171        5.5535622534        6.5699809944
  H        10.0928354064        1.8850625718        6.7526391442
  C        10.5506645075        3.5730011911        5.5594484910
  H        11.4982889417        4.0800069065       10.5528767846
  H        12.1543378762        3.4740068868        9.1309770984
  C        12.6938025121        2.3860473940       10.8369616566
  C         7.9570024218        6.7280002570       12.4008095243
  C        10.5057725755        4.8846969166        5.4162036511
  H        10.0857640019        6.6183614784        6.6403053160
  C        10.9979158487        3.1630247189        4.3134696412
  H        13.6395448433        2.9485030789       10.6957604542
  H        12.7424320900        1.3519069087       10.5579934149
  C        12.3876639804        2.4906261928       12.3426272605
  C         7.8636349112        8.0778598728       12.6877965452
  C         7.5106429390        5.7967177016       13.4692200668
  C        10.9955196879        5.5701579270        4.1795292555
  C        11.3400372861        4.2210435344        3.5180711004
  S        11.1746135925        1.6514832898        3.5518449962
  H        12.0836125171        3.5003501199       12.6320603547
  H        11.6142112347        1.7562576098       12.5727596325
  C        13.6167984593        2.2315537857       13.1660442701
  N         8.2520628587        9.0042726350       11.7647514595
  C         7.5949086456        8.6247164587       13.8943939154
  C         7.2007866013        6.3440342270       14.7169499906
  H         7.2663639090        4.7285046344       13.2970321129
  C        12.2909172261        6.4582340856        4.3624725511
  C         9.8874048243        6.1890688339        3.3868899107
  C        11.6550716141        3.8344486976        2.2459562601
  C        11.6097998524        2.4673323503        2.0729146127
  H        14.0963044675        3.1887885047       13.4376881177
  H        14.3986472600        1.6817473654       12.6087411589
  C        13.3790430067        1.4824752714       14.4703746463
  S         8.1993999593       10.5025254294       12.4983194306
  N         7.4920367863       10.0018241715       13.8777490652
  C         7.3371681892        7.8184968804       14.9974745168
  H         6.9927999188        5.6339744613       15.5344219365
  H        12.0311186576        7.3073905699        4.9747593588
  H        12.6784851108        6.9753013079        3.4148961577
  C        13.4936446603        5.6852715060        4.9571374632
  H         9.5184067010        6.9987940722        4.0430028846
  H        10.2316141670        6.6245189538        2.4472577071
  C         8.6517403253        5.3231062418        3.0755411918
  H        11.8010441620        4.5567567234        1.4113408850
  C        11.8383446480        1.7763470525        0.7447633977
  H        12.7691525901        0.5647566010       14.3190512446
  H        14.3327011043        1.3289540557       14.8976083655
  C        12.5048133616        2.2866267825       15.5189497033
  C         7.0420302876        8.4811876983       16.2672362183
  H        13.0255953687        5.2008515125        5.7946402416
  H        13.9798395542        4.9532787287        4.3667366601
  C        14.6461913149        6.5309674974        5.4805747508
  H         8.3549573269        4.9248881125        4.0431961915
  H         8.8936213478        4.5979472961        2.3566954281
  C         7.5505728869        6.2774269687        2.4778047354
  C        11.9799158537        0.3832401068        0.6534760389
  C        11.9427804889        2.4939656986       -0.5436849248
  H        11.4737484386        1.9441761262       15.4525749681
  H        12.5829575170        3.3407419382       15.1398515739
  C        12.9933340733        2.1626992651       17.0059789622
  H         7.3240230963        9.4998721892       16.2635126024
  C         6.6583937207        8.0731530362       17.4808928512
  H        14.2719911666        7.3630733268        6.0938950296
  H        15.0502611928        7.0635717820        4.5858188656
  C        15.6358665957        5.6402523457        6.2067556606
  H         7.2440764054        6.8557080075        3.3104628680
  H         8.0049544643        6.9360883615        1.7134758673
  C         6.3217789637        5.4976519652        1.9992375220
  N        11.9858909025       -0.5555236601        1.7374297374
  C        12.3296017225       -0.2846680613       -0.5753386822
  C        12.1670413284        1.8175985692       -1.7422927329
  H        11.7272696824        3.5632706883       -0.5733087071
  H        14.1355954866        2.1421324298       16.9779362375
  H        12.5893155109        1.3778687024       17.5832092517
  H        12.6087608003        3.0376426308       17.4795039441
  S         6.2702593953        6.4388938266       17.8961013722
  C         6.6189084488        9.0247313257       18.6118220909
  H        15.1723032834        4.9442025301        6.8808980517
  H        16.1630983940        5.0868427199        5.3897615983
  C        16.7050258857        6.3924505619        6.9669776251
  H         6.0452848852        4.7403503837        2.7366158391
  H         6.5311261497        4.9117771822        1.0114636835
  C         5.0717825125        6.4081793929        1.7262195643
  S        12.1438833577       -2.0727069613        1.1512603848
  N        12.4625333749       -1.6684179542       -0.4515613275
  C        12.4128282034        0.3968523250       -1.8216595263
  H        12.0572775777        2.4601209265       -2.5718268178
  C         6.3259139911        6.9847202626       19.5598306216
  N         6.3361774201        8.3240957498       19.6926576638
  O         6.9536703617       10.1960460605       18.5201908958
  H        16.8099027352        7.3891781642        6.4097844040
  H        16.2746421629        6.6930069729        7.9025892887
  C        18.0255960971        5.6404678285        7.0849968643
  H         4.7278093268        6.2103024524        0.7218492012
  H         4.2573840766        6.0647886579        2.3151911065
  C         5.1474693366        7.9056648869        1.9982418144
  C        12.8154403056       -0.2800184050       -3.0380783718
  S         5.9603486901        5.9500582175       20.9517989373
  C         6.1627761390        9.0791737556       20.9549588991
  H        18.0769989436        5.2779648752        8.1390398360
  H        17.9966819276        4.6836070285        6.5678867159
  C        19.3928973812        6.3070891143        6.7699892837
  H         5.9826402978        8.3235589916        1.3561270555
  H         5.3309481475        8.1106702580        3.0437771336
  C         3.9378852904        8.7064112411        1.4883742015
  H        12.6626208210       -1.4062272547       -3.0737862541
  C        13.3055727519        0.1035716752       -4.2333212516
  H         5.3678657244        8.6634633708       21.6074970781
  H         5.8275409155       10.1168090150       20.8010888085
  C         7.4680529387        8.9655001857       21.7256927854
  H        20.0653132258        6.2101906465        7.6101040151
  H        19.1864255215        7.4471102904        6.7271485133
  C        20.1124803858        5.7175255223        5.5925082942
  H         3.7077829791        8.2628221853        0.5095764091
  H         2.9967816471        8.3745473001        2.0773424785
  C         4.2182993807       10.2415324388        1.3766561637
  S        13.7174736132        1.6648262992       -4.7637447032
  C        13.5344955415       -0.9865113488       -5.2185244270
  H         7.2589533406        8.9281536074       22.8001903594
  H         8.0122926598        9.8457829811       21.4496471007
  H         8.0398769408        8.0411016084       21.5080232698
  H        20.8264394673        5.0136710735        6.0373638925
  H        19.4652161654        5.1959237782        4.8980206914
  H        20.7973864689        6.4519891592        5.0690527209
  H         5.0407130947       10.4748945300        0.6937275720
  H         3.3204385118       10.8062379768        1.2467866823
  H         4.7255151634       10.4757534650        2.2925718955
  C        14.2522732894        0.9054634756       -6.2370593212
  N        14.1730565532       -0.4896436159       -6.3068098901
  O        13.3159470125       -2.1848357751       -5.1043490980
  S        15.1027352284        1.7418550960       -7.5345100680
  C        14.3992041373       -1.2664234742       -7.4806068775
  H        14.3735590447       -2.2534833730       -7.1351286950
  H        15.4361497509       -1.1847910360       -7.8081307400
  C        13.2675322890       -1.3290281892       -8.4421961596
  H        12.2431478410       -1.0485428424       -8.0481446301
  H        13.1776551396       -2.3451214328       -8.6177786590
  H        13.3183979886       -0.8413560330       -9.4353567212
  H        -2.5704598742       15.3664908821       16.4221455921
  C        -2.6405474264       14.3047566021       16.5108610671
  H        -3.6533536584       14.0848947909       16.8540347661
  C        -1.5791276313       13.6459143412       17.3854796214
  C        -2.4204185409       13.7662256714       15.1025197274
  C        -1.7057250124       14.1744437797       18.8590140361
  H        -1.6919433622       12.5470158209       17.3327340576
  H        -0.6220557790       14.0036965871       17.0578019316
  H        -1.5386956227       14.1698575201       14.6507508679
  H        -2.3520316243       12.6839933629       15.0902777375
  H        -3.1357487744       14.0042445876       14.3896469493
  C        -1.9640754535       13.0751074793       19.8786949384
  H        -2.4556586701       14.9542516354       18.7901149786
  H        -0.8173555674       14.6184771527       19.2784677715
  C        -2.2152658247       13.5285956632       21.2976627468
  H        -2.7414610432       12.4124053288       19.4745964999
  H        -1.0655640971       12.4569616437       19.8476283767
  C        -1.2415919099       12.9582757438       22.3137959474
  H        -3.1685509108       13.2580722937       21.7843216542
  H        -2.1568336809       14.6050109148       21.3112119822
  C         0.0795876090       13.7864929048       22.4280675782
  H        -1.7214999063       12.9637311251       23.3020727821
  H        -1.0259017226       11.9702670291       21.9896351657
  C         1.2641371272       13.0261517669       23.1629319100
  H         0.4079257735       13.9786857418       21.4350690316
  H        -0.1455998595       14.7141480486       22.9119937112
  C         1.6509080371       11.6819482902       22.5386267220
  C         0.8665045096       12.3823570348       24.4668594814
  C         2.5383740956       13.8638455622       23.3234728069
  C         1.4308389175       10.6277796411       23.4086895173
  C         1.9924474597       11.2507042488       21.2550481231
  C         0.8683794990       11.0729051932       24.5676994690
  C         0.4664891788       13.0383414659       25.6297879031
  H         2.7717845497       14.3524591328       22.4162714601
  H         2.2579132687       14.5667995288       24.1093668552
  C         3.8455175405       13.0956449131       23.6326961408
  S         1.7952634110        9.0370329549       22.6421246779
  C         2.1186869592        9.8655777098       21.1828833847
  H         2.1049405457       11.9991874841       20.5081892279
  C         0.3733600212       10.4484573673       25.6926248748
  H         0.3749922944       14.1332863203       25.7231691656
  C         0.1188167269       12.4067227668       26.7992371696
  H         4.0667296552       12.5365168879       22.7855795424
  H         3.7961639422       12.4714340701       24.5098775350
  C         5.0059870655       14.1290101507       23.8277375553
  C         2.6721864406        9.1794427505       19.9468732994
  C         0.0816510109       11.0430925389       26.9157928572
  H         0.4334549277        9.3769064884       25.5845944880
  C        -0.2009094081       12.8398028498       28.0318906634
  H         5.8760034949       13.6804156157       24.2712401493
  H         4.8062304293       14.8196603435       24.5911096509
  C         5.5857267047       14.8229724280       22.5208799845
  C         2.7647111704        7.8188854532       19.6423607738
  C         3.1079940592       10.1045777720       18.8530190033
  C        -0.3218283020       10.3530005866       28.1451827676
  C        -0.4662057951       11.7607120337       28.8657444831
  S        -0.2983796237       14.3781888774       28.8528300600
  H         6.3525491848       15.5414409382       22.7553857573
  H         4.8551784011       15.3530837472       21.9380279485
  C         6.2605225184       13.7895045648       21.5938291258
  N         2.4875215968        6.7242047737       20.5352950880
  C         3.1405832454        7.2848206148       18.3541437719
  C         3.3480019577        9.6084986244       17.6017318193
  H         3.0507684583       11.1329604037       19.0228006957
  C         0.8444548769        9.6337953600       28.8901932227
  C        -1.6035427951        9.5335608797       28.0025966016
  C        -0.8936125555       12.1278629089       30.1186566488
  C        -0.8015972961       13.5058331914       30.2984057495
  H         7.2497567810       14.0751549697       21.4710501628
  H         6.3580036129       12.8253809786       22.1029640438
  C         5.5443977354       13.6354286665       20.2339310126
  S         2.5975459739        5.3050856037       19.7673794510
  N         3.1164312930        5.8118910104       18.3416721653
  C         3.3826358731        8.1897759933       17.2450868559
  H         3.5990753195       10.3660348782       16.8665783575
  H         1.0259129384        8.7756603658       28.3122567097
  H         0.4650452153        9.1708959003       29.8134800879
  C         2.0891803468       10.4984463299       29.2621777701
  H        -1.6614339534        8.8213476636       27.1426873516
  H        -1.8361686215        8.9426917589       28.8895707682
  C        -2.8424840861       10.3835959895       27.9063665071
  H        -1.1370316859       11.3821111535       30.8622394136
  C        -1.1920353575       14.2974501449       31.5311511483
  H         4.8225522015       14.3784466350       20.1327291657
  H         4.8794147387       12.7920971857       20.3688719004
  C         6.5900398888       13.5379783134       19.0868232881
  C         3.6436856760        7.6998800427       15.9537587530
  H         2.3223508430       11.0516542670       28.3467837787
  H         1.8805201169       11.2391032900       30.0552848841
  C         3.3079309227        9.6724202904       29.6913729196
  H        -2.6813585436       11.1653671790       27.1629771664
  H        -3.0818558607       10.8675328882       28.8037084152
  C        -3.9990313539        9.6404816223       27.3385115683
  C        -1.2586221080       15.7367147311       31.6303939620
  C        -1.5367621525       13.5879364486       32.8172614857
  H         6.9973252727       14.5235386612       18.9084793058
  H         7.3229004371       12.8673109156       19.2979476995
  C         5.8543733415       13.0661467565       17.7799695238
  H         3.4750605424        6.6262833015       15.8450588732
  C         3.8879349625        8.2772544288       14.7118006677
  H         3.5805081618        8.9597978602       28.9669704000
  H         3.0920724954        9.0396918027       30.5252482904
  C         4.5432048215       10.4906830911       30.0511936131
  H        -3.6796889653        9.2580650774       26.3668423382
  H        -4.3777318826        8.8271712443       27.9373719798
  C        -5.1823946570       10.4529730941       27.1581963226
  N        -0.8837037467       16.6098615599       30.6467703508
  C        -1.6877801946       16.3642056003       32.8140325970
  C        -1.9496513023       14.2210355953       33.9803095391
  H        -1.3280957481       12.5453104709       32.7497731623
  H         6.5026107481       12.9877816553       16.8924593162
  H         5.2694800252       12.1777437900       17.7665459631
  H         5.1931722119       13.9172893267       17.6112112358
  S         4.1024782047        9.8921995745       14.3390335056
  C         4.0227343161        7.3678256446       13.5632260519
  H         4.6013163641       11.4334130881       29.4687758721
  H         4.5113470749       10.8162155457       31.1364195737
  C         5.8555000973        9.7301841102       29.9786324805
  H        -4.8916545375       11.3121273446       26.5505158333
  H        -5.5224792277       10.8155896408       28.1345380887
  C        -6.2592532577        9.6584872781       26.4049627922
  S        -1.2041911663       18.0867184010       31.1973862355
  N        -1.7799323763       17.7299590383       32.6692444391
  C        -2.0930328006       15.7181047461       34.0151646670
  H        -2.1105454679       13.5306855679       34.8362465435
  C         4.4652236921        9.3705630576       12.6039133505
  N         4.2656459609        8.0468658525       12.3700156005
  O         3.8438319241        6.2220796067       13.5583525228
  H         6.6719045520       10.4309210737       30.0632944869
  H         5.8814359112        9.2340343185       28.9794812326
  C         6.0185721379        8.6502497705       31.0584584281
  H        -5.9754056759        9.6549952592       25.3602951409
  H        -6.3535039127        8.6545592407       26.7787871374
  C        -7.5376636023       10.4790087150       26.3071568122
  C        -2.3896005287       16.5338846118       35.1652476669
  S         4.9600282517       10.4446331074       11.2424597375
  C         4.3295000891        7.3783417317       11.0541210555
  H         6.5825249711        9.0142333463       31.9408209600
  H         5.0508306573        8.4120982486       31.4285920475
  C         6.6046937584        7.3968511570       30.5275427502
  H        -7.3713222739       11.4807040269       25.9094015416
  H        -8.1278344127       10.6225553255       27.2464431639
  C        -8.4496216017        9.8383336026       25.3624124314
  H        -2.0549067937       17.5537989281       35.0788856125
  C        -3.0229012480       16.2990482619       36.4031327919
  H         4.9657657184        7.9691622720       10.4010570031
  H         4.8572411398        6.4432287693       11.1993857288
  C         3.0161616905        6.9445910985       10.3909153659
  H         7.7060542401        7.5364339122       30.3283400632
  H         6.2019325311        7.0833548445       29.5414550986
  C         6.4560274505        6.2494468620       31.5149165654
  H        -8.5820292133       10.4578513725       24.4639570644
  H        -8.0609505119        8.8565121695       24.9684899349
  C        -9.8367531045        9.5185828864       25.8312302935
  S        -3.4315594292       14.7720638785       37.0916844684
  C        -3.0861159259       17.4280626847       37.4208533288
  H         2.5009371843        7.7131259709        9.8734053335
  H         3.2417228187        6.2623788782        9.5482860681
  H         2.3973953902        6.4436642618       11.1470770037
  H         7.4180774902        5.7755802149       31.7232014970
  H         5.7586085059        5.5940649906       31.1594290500
  H         6.1920835264        6.6337757871       32.4849487913
  H        -9.8380197212        9.0102980374       26.7282442678
  H       -10.3928311415        9.0711530404       25.0201009311
  H       -10.3835850901       10.4806094558       25.9477979755
  C        -3.7623977626       15.6644129806       38.5720274911
  N        -3.6693063876       17.0151960434       38.5458460164
  O        -2.7803925500       18.6178205124       37.1488204554
  S        -4.2607376331       14.9106460215       40.1276856636
  C        -3.8402168258       17.8707679269       39.7242158306
  H        -4.1780367316       18.8137882589       39.4490447563
  H        -4.6170105193       17.5361168701       40.3933883552
  C        -2.5960910021       18.0152749188       40.6669023109
  H        -2.9224073789       18.4406003612       41.6145357341
  H        -2.0559673344       17.0674215306       40.8435160950
  H        -1.8458520863       18.6189053609       40.1450543909
