352
i=
  H         1.9069920310        3.1125837263       11.8802816534
  C         2.7627897173        2.5435702225       12.3858533156
  H         2.5016930782        1.4839455893       12.3655104678
  C         4.0557845712        2.7439872249       11.5268237826
  C         2.9050347912        2.9752611077       13.7933793889
  C         3.9664186446        2.7261737517       10.0401740787
  H         4.8545497425        2.1319592428       11.9460884675
  H         4.4045385615        3.8040447597       11.7979821810
  H         2.0887239550        3.6619411551       13.8786239729
  H         3.8455122693        3.4487380114       13.9652459909
  H         2.7877180435        2.1943388038       14.5546577861
  C         4.7639404119        1.6041592572        9.3471172683
  H         2.9721994427        2.6366308687        9.6279026652
  H         4.2759688887        3.7436333584        9.7473229867
  C         5.5412214995        2.1300733601        8.0985537256
  H         4.0112600508        0.8970983292        8.9046407749
  H         5.4293118774        1.0967997626        9.9492904269
  C         6.6618123862        3.0278899851        8.5248151989
  H         4.9025011448        2.7136589196        7.5048069932
  H         5.9387098160        1.4465456537        7.3871284920
  C         7.9357719864        2.3754719710        9.1079182330
  H         6.8562458652        3.5922057400        7.5733897235
  H         6.3266427001        3.8401339828        9.1470302401
  C         9.0923788246        3.3133895387        9.3218157136
  H         8.2858671484        1.5867700420        8.5141776005
  H         7.6422293546        1.8705817696       10.0125630262
  C         8.6827470005        4.7041726985        9.8911416248
  C         9.6183660644        3.9465285853        8.1454924385
  C        10.2380250998        2.6717480374       10.2113920812
  C         9.0187259155        5.7827321044        9.0994730369
  C         8.0274510250        5.1794646224       11.0085471888
  C         9.6291501791        5.2849501579        7.9909922507
  C        10.1879265648        3.2269982302        7.1224079302
  H         9.8054664955        2.5162518525       11.1718730272
  H        10.3607043278        1.6289131340        9.7929488142
  C        11.5327090870        3.5568375669       10.4221384180
  S         8.7265282090        7.3137680235        9.8109272141
  C         8.0546689951        6.5279515173       11.1874401986
  H         7.7565177629        4.4882317001       11.7903510416
  C        10.1616365530        5.8492010045        6.8640845960
  H        10.1251505118        2.1875123049        7.3049312262
  C        10.6376715891        3.7795396954        5.9371958885
  H        11.2970170894        4.5388618720       10.7195296735
  H        12.1507798322        3.5748757406        9.5343798742
  C        12.5081667670        2.9770594972       11.5442104301
  C         7.6421158364        7.1917828669       12.5083082756
  C        10.6719257790        5.1528518830        5.7370513054
  H        10.1895961257        6.9528588467        6.8089126807
  C        11.0350422986        3.2766256770        4.7248082617
  H        13.5671214671        3.2460126513       11.3879162600
  H        12.6024613787        1.8096373846       11.4935752295
  C        11.9704892896        3.3590927255       12.9367583310
  C         7.7493278481        8.6084304339       12.7940674310
  C         7.1073408179        6.3968112839       13.6624125383
  C        11.1725437208        5.7596391833        4.4452957132
  C        11.3598970130        4.3035195267        3.8977783446
  S        11.0835273697        1.7495000262        3.9301830631
  H        12.3302369580        4.3411348103       13.2161627376
  H        10.9030904523        3.5017931747       12.9201048032
  C        12.4584323804        2.3490932087       14.0396481804
  N         8.0494094584        9.5692432354       11.8363579806
  C         7.4255411781        9.1871311894       13.9723063043
  C         6.8335404906        7.0408905309       14.8319168042
  H         6.8236920894        5.3721168093       13.4536380480
  C        12.5074369813        6.5173425825        4.5924319606
  C        10.0193959810        6.6325740891        3.7725205868
  C        11.8494763604        3.8544992545        2.6215629651
  C        11.7229390272        2.5030679610        2.4737958688
  H        13.4600859823        2.4038479784       14.3040732605
  H        12.4327081225        1.3239278715       13.6673360961
  C        11.5410197273        2.2386300243       15.1846967830
  S         8.1253040196       11.0593263830       12.4942265572
  N         7.6782383081       10.5428551823       13.9993520012
  C         6.9942938822        8.4783761710       15.0973291447
  H         6.4528508365        6.3734400595       15.5662015109
  H        12.2993853029        7.5559637758        4.8432524491
  H        13.1087561920        6.5736604002        3.6676414813
  C        13.4405389026        5.9472740241        5.6464613723
  H         9.7480707860        7.4680998753        4.4464433901
  H        10.4732192356        7.0971418032        2.9382210496
  C         8.7843080978        5.8666673724        3.2497481797
  H        12.2054962772        4.6680840800        1.8960437141
  C        12.1369918407        1.7115988349        1.2663725037
  H        11.1578866817        3.2841510350       15.3634794751
  H        10.7457342722        1.5613998491       14.9633746287
  C        12.2688849816        1.9946285563       16.4986497323
  C         6.8362657784        9.1464222353       16.3424873081
  H        13.1184906380        6.1742424756        6.6312109915
  H        13.5194029362        4.8279791065        5.6029582257
  C        14.8710736873        6.4356395371        5.4373902325
  H         8.2512592824        5.5654679444        4.1283391371
  H         9.1792578864        5.0612785259        2.7051226205
  C         7.8485967542        6.6149673358        2.3366330553
  C        12.0364831894        0.3393284973        1.0880759533
  C        12.2898899721        2.4457596100        0.0129877565
  H        12.9725061599        1.1481542555       16.4174559088
  H        11.5010434161        1.7434554216       17.2132641371
  C        13.1889089252        3.0949573278       16.9800050334
  H         6.8359097266       10.2618726074       16.2666139527
  C         6.6767827148        8.6482545804       17.6035314167
  H        14.9381662615        7.4764564423        5.3450792153
  H        15.2903909703        6.0605566142        4.5637719526
  C        15.7712259365        6.0091395641        6.5135555634
  H         7.5156350954        7.4683627568        2.8510215980
  H         8.4526020917        6.9802165486        1.5238305443
  C         6.7014795349        5.8454381796        1.8230494055
  N        11.7208925822       -0.4983925749        2.0715586999
  C        12.2061405189       -0.3699157996       -0.1164684185
  C        12.4429409485        1.8164682288       -1.2288865891
  H        12.1887017065        3.5037297538        0.0725395666
  H        12.9089219448        4.1113173365       16.7720425097
  H        14.1517343966        2.8624237290       16.4887702973
  H        13.4042277001        3.0916229018       18.0813412116
  S         6.6929214237        6.9973889890       18.0565420409
  C         6.3540028784        9.6213122889       18.6813262168
  H        15.8887364949        6.9005915100        7.0744863222
  H        15.3316142343        5.2583160730        7.1515742411
  C        17.1928174382        5.5288268614        6.1428619552
  H         6.7380365230        4.9238585037        2.3193308994
  H         6.5980032825        5.6473974607        0.7330004347
  C         5.3248480252        6.3727157512        2.2384840139
  S        11.8702170767       -2.0467641940        1.6590286382
  N        12.2157453412       -1.7520763413        0.0669803988
  C        12.4474723759        0.3289708559       -1.3363774395
  H        12.6442994888        2.5108448021       -2.0360874043
  C         6.2783179409        7.5850855655       19.7225792706
  N         6.1266476282        8.9522466205       19.8442965722
  O         6.1895775251       10.8166536042       18.5160456324
  H        17.0417581267        4.7291982449        5.4382917994
  H        17.5786425234        6.2893026048        5.5082347245
  C        18.0544986111        4.9171024962        7.2723486263
  H         4.7475587450        5.5030415867        1.9835381134
  H         5.2391980565        6.4676481086        3.3244372889
  C         4.9673931419        7.6434349838        1.3972680354
  C        12.6385231952       -0.4173972333       -2.5465783971
  S         5.9883441831        6.7259604753       21.2946691467
  C         6.0370066686        9.6461336868       21.0832937378
  H        17.4480978826        4.7860424850        8.1929235968
  H        18.4394138096        3.9200375914        6.9988688962
  C        19.2240081626        5.9135933089        7.7141869099
  H         4.9040121288        7.3723016084        0.3274632963
  H         5.7608926516        8.4294568742        1.4254306026
  C         3.6637720001        8.2900695604        1.8991159974
  H        12.4976623802       -1.4492408468       -2.4355193397
  C        13.0698223902       -0.1456417130       -3.8005235890
  H         5.2891911860        9.2386384986       21.6824980532
  H         5.6291487759       10.6718711111       20.8439046292
  C         7.4373245686        9.5872541749       21.6836020125
  H        19.6197380880        5.6090179652        8.7429701936
  H        18.8249683412        6.9318976832        7.7948910570
  C        20.2814302868        6.0159165093        6.7069978813
  H         3.1157492027        8.4004996468        0.9548948215
  H         3.0538258969        7.7745329275        2.6168349405
  C         3.8329315268        9.6589491826        2.5543155829
  S        13.7441156084        1.3898656946       -4.2825169813
  C        13.0708150004       -1.2276125798       -4.8113548348
  H         7.7113980564        8.6184634885       22.1372561335
  H         7.4342135897       10.3628278443       22.4593846831
  H         8.1807864776        9.8316817909       20.9305332825
  H        20.0282552346        6.6365854746        5.9663672669
  H        21.2506047503        6.2547568092        7.1609876300
  H        20.5015467880        5.0316031056        6.2988144865
  H         4.5993305665        9.6787655990        3.3698527453
  H         4.0421961433       10.3893589015        1.7727566677
  H         2.9327429395        9.9820234706        3.0601373576
  C        14.1882059631        0.4757277732       -5.7414702926
  N        13.8065185089       -0.8272442297       -5.7910337791
  O        12.6339958618       -2.3813243657       -4.7169149659
  S        15.0117836738        1.2728093634       -7.1669184604
  C        14.0223009627       -1.6861068421       -6.8850050013
  H        14.1176906020       -2.7021102276       -6.6229242269
  H        15.0017183258       -1.3816585813       -7.3747528697
  C        12.8605823514       -1.5799970806       -7.9137141225
  H        11.9037294435       -1.6965813332       -7.5104333453
  H        12.9968073822       -2.5209560845       -8.4426993069
  H        12.9566581533       -0.6849437772       -8.5408092610
  H        -3.6826040662       14.6330147863       16.8138183703
  C        -2.9805398301       13.7699984531       16.6329691066
  H        -3.6536449853       12.9155116129       16.9491260919
  C        -1.7386501361       13.7970929720       17.5814317032
  C        -2.6545516619       13.6600214774       15.1043333706
  C        -1.8400400822       13.0261278761       18.9029214605
  H        -0.9360713105       13.4548298226       16.9922798043
  H        -1.3121126791       14.7800199898       17.7955396903
  H        -2.0322821406       14.4857955340       14.7116933198
  H        -2.1219380376       12.7199632855       14.9963398685
  H        -3.5494637604       13.6854343578       14.5094903054
  C        -2.6351523569       13.8303975420       19.9762074617
  H        -0.8543555723       13.0918711953       19.2703033516
  H        -2.2515868563       11.9802851383       18.8459580181
  C        -2.8315470338       13.2944108070       21.3949546290
  H        -2.2149964815       14.8604109404       20.1280024990
  H        -3.6751041562       14.0335504647       19.5815739723
  C        -1.5929966526       12.6981742329       22.1822180267
  H        -3.6969599985       12.6618816894       21.4233256884
  H        -3.2015447537       14.1113685241       22.0262105297
  C        -0.4220488462       13.6260988331       22.3402814045
  H        -1.9861632771       12.3558155642       23.1965403159
  H        -1.3054089191       11.7826591843       21.6876566425
  C         0.7931740185       12.9538769237       23.0342561216
  H        -0.1907689572       13.9790565166       21.3393262416
  H        -0.7762487273       14.5394795868       22.8835814616
  C         1.2532177969       11.5815927977       22.4125620279
  C         0.3664891087       12.2654521830       24.3316535680
  C         2.0006407553       13.9723132751       23.1857053527
  C         1.0608046950       10.5070882076       23.2050154302
  C         1.8232186147       11.2152167164       21.1910170372
  C         0.4764964071       10.9002763517       24.4277095320
  C         0.0131010688       12.9084790504       25.4681308454
  H         2.1386100798       14.5471092885       22.2722630999
  H         1.7434701634       14.6317462683       24.0542710175
  C         3.4199414994       13.3462369522       23.3734203046
  S         1.5798346210        9.0301243436       22.4736513642
  C         2.1065438883        9.8950434356       21.1162998948
  H         1.9499954537       11.9735122031       20.4278914901
  C         0.1336439383       10.2756467944       25.6293019384
  H         0.1841938351       13.9663900803       25.4615300459
  C        -0.2534884002       12.3288384608       26.6413819600
  H         3.7869055019       12.9731875005       22.4101828653
  H         3.4213737587       12.4838652077       24.0741249157
  C         4.4716868388       14.3425190515       23.7820083506
  C         2.7129214773        9.3381373707       19.8664514644
  C        -0.2250923218       10.9939289457       26.7745344608
  H         0.1575283645        9.2308504808       25.6818152625
  C        -0.7487606757       12.7711732060       27.8594717958
  H         5.2028376871       13.8897467009       24.4182866807
  H         4.0175408549       15.1187683491       24.4397863339
  C         5.0745431078       15.1466451137       22.6244706749
  C         2.8337888123        7.9619433350       19.5184110223
  C         3.1565194538       10.2972212155       18.7930343275
  C        -0.6440402444       10.3116851581       28.1261165166
  C        -1.0091196625       11.6779952723       28.7000132365
  S        -1.0041427448       14.3621446840       28.4465273649
  H         5.5366804874       15.9885102463       23.0877494733
  H         4.2726769541       15.4367044893       21.9244826025
  C         6.2189676767       14.4739521526       21.8813966391
  N         2.6843324043        6.9702476246       20.4653090626
  C         3.0586077837        7.5045228900       18.2394368757
  C         3.3745262987        9.8186138348       17.4974828076
  H         3.2798526970       11.3266476472       18.8776423301
  C         0.5970344337        9.6916586639       28.8626969879
  C        -1.8533434381        9.4188826372       27.9159360163
  C        -1.3557380947       12.1625141472       29.9748685314
  C        -1.3278532723       13.5517043869       30.0038931191
  H         7.0429338832       15.1950200326       21.8768227214
  H         6.4711475792       13.5664098409       22.4858520784
  C         5.9271915200       14.0408532971       20.4805296315
  S         2.7031980133        5.5596924960       19.5771738855
  N         2.8895599537        6.1677289166       18.0815420806
  C         3.2860956244        8.4202170595       17.1095063521
  H         3.5678499998       10.4727224244       16.7078335178
  H         0.9038869191        8.7639921978       28.4949493774
  H         0.2780597694        9.3211619172       29.8709980894
  C         1.8577213741       10.5221695515       29.0108777493
  H        -1.7933712949        8.8004761451       27.0628543473
  H        -2.0238161618        8.7513237284       28.7731655668
  C        -3.0426028480       10.2710606568       27.5238641448
  H        -1.4582390670       11.3872996578       30.7504533412
  C        -1.5248770147       14.3433427053       31.2782485257
  H         5.3605019072       14.7714728428       19.9107025678
  H         5.2796719279       13.1339189706       20.4706419388
  C         7.2299579794       13.8029292134       19.7103994740
  C         3.5049836783        7.8408870217       15.8317950941
  H         1.9726194918       11.0225848426       28.0742774481
  H         1.7274121788       11.2058346456       29.8260384698
  C         2.9369248928        9.6711048560       29.4877634885
  H        -2.8468821827       10.7446451479       26.5992995032
  H        -3.3338194133       10.9963646921       28.2689133612
  C        -4.2060740422        9.2935777771       27.3536046257
  C        -1.5819143742       15.7085901848       31.4363986030
  C        -1.8074573218       13.5967183406       32.5178509547
  H         8.0470281499       14.4524075547       19.9943410934
  H         7.5665098050       12.7500228097       19.9833827487
  C         7.1061890691       14.0051675381       18.2649987048
  H         3.5944556136        6.7462602712       15.7844865709
  C         3.7257027344        8.3160995887       14.5606953929
  H         3.3259732869        9.1313807904       28.6444414520
  H         2.5675343250        8.9581626831       30.1661902571
  C         4.1393231564       10.3755042518       30.1559312263
  H        -3.8766335884        8.5852057613       26.6154444830
  H        -4.4280924381        8.8560711038       28.3608680442
  C        -5.5703224913        9.9534990989       26.9455108771
  N        -1.2210879829       16.6040558460       30.3834029349
  C        -1.9076007002       16.3656081477       32.6492446680
  C        -2.1469805998       14.2568466835       33.7456796670
  H        -1.7787191221       12.4853656442       32.5849274416
  H         7.2112439862       13.0872162081       17.7203710148
  H         6.2386071109       14.4555056611       17.8507297256
  H         7.9598637188       14.6066981738       18.0223330567
  S         4.0812332382        9.9144717413       14.1410513285
  C         3.7859054696        7.2625760427       13.4937833035
  H         4.1334319402       11.2521496561       29.5621576574
  H         3.8824027221       10.6229129488       31.2337823646
  C         5.4332494752        9.6171341964       30.0458399063
  H        -5.8959015081       10.8627767254       27.4653770383
  H        -6.2689039988        9.1294996831       27.0907181638
  C        -5.6146104700       10.1975696216       25.4487521837
  S        -1.4648758672       18.0825177933       30.8750773926
  N        -1.8880289926       17.7613439562       32.4456236916
  C        -2.2339084029       15.7217796423       33.8055655238
  H        -2.2250439342       13.7446609534       34.6930347716
  C         4.3653495009        9.2362030351       12.5399919014
  N         4.1867319486        7.9295661922       12.3876004419
  O         3.3991076622        6.0882228146       13.6315580422
  H         6.1600826439       10.2950768218       30.5200259716
  H         5.6718544546        9.4826966746       29.0333227712
  C         5.4388571046        8.2729957505       30.7051030737
  H        -4.7463422936       10.7345098178       25.1970280699
  H        -5.5478671804        9.2113640041       24.8799154652
  C        -6.7054614306       11.1203210496       24.9189563799
  C        -2.6096667780       16.5485899842       34.9675563751
  S         4.8191468815       10.2022026464       11.1045518415
  C         4.3030065482        7.3278706278       11.0645826501
  H         5.7467977821        8.3191181487       31.7122827675
  H         4.4069577571        7.8859528082       30.8830583629
  C         6.3613937644        7.3094942921       29.9461241851
  H        -6.4734497278       11.3904849307       23.8824197743
  H        -6.7802897985       12.0678369732       25.4812494544
  C        -7.9842288434       10.2817566606       24.9309088365
  H        -2.1723398046       17.5115179522       35.0777769492
  C        -3.1437999819       16.2477725064       36.1884616918
  H         5.1452690476        7.6549245474       10.4417448824
  H         4.6335605810        6.2856917813       11.1536153675
  C         3.1009441986        7.3479496098       10.2841060320
  H         7.2565308609        7.8544886923       29.7084199591
  H         5.9659065227        6.9197582220       29.0052268646
  C         6.6745582626        6.0810979906       30.8156593874
  H        -8.6165681704       10.4759610673       24.0469318815
  H        -7.8285016826        9.1846255486       24.9886406844
  C        -8.7395857321       10.6196987482       26.2349227370
  S        -3.8646514444       14.7341962862       36.6121982794
  C        -3.1272583692       17.2263564116       37.2855048549
  H         3.2427354740        6.8527416568        9.3298224000
  H         2.4248561163        6.6059118823       10.6886067894
  H         2.6485766394        8.3064029427        9.9789238193
  H         7.5390210759        6.2955960281       31.4702390553
  H         6.8147551450        5.2666787198       30.1111053301
  H         5.8933581638        5.7224209246       31.4816295445
  H        -8.1776818711       10.9978952224       27.0304219021
  H        -9.2446319357        9.7041690674       26.5906658454
  H        -9.4958113768       11.3494532696       26.0319120932
  C        -3.8166206804       15.3068863448       38.2523469666
  N        -3.7276457927       16.6473376112       38.3462472093
  O        -2.6903731447       18.3416907779       37.1312113665
  S        -4.5468120039       14.3593081603       39.6256085661
  C        -3.9528483320       17.4505175840       39.5085900057
  H        -4.0109134454       18.4906967230       39.1884855318
  H        -4.8969058087       17.2940388499       39.8891602429
  C        -2.7938598310       17.3134347542       40.5497410635
  H        -2.6584743776       16.3379332935       41.0076699353
  H        -1.8912514582       17.4943711450       39.9482521352
  H        -2.6902600416       18.0062560478       41.2965734832
