352
i=
  H         4.9837920982        1.5573384322       13.0451559328
  C         4.3166029068        2.4188210905       13.2011704910
  H         5.0225970673        3.2023588964       13.2725076007
  C         3.4149657214        2.4880113650       11.9313444032
  C         3.6111271795        2.2945400098       14.5867699540
  C         4.0683304773        2.6840337332       10.5672731514
  H         2.8866225476        3.4244611586       12.1044844595
  H         2.8012375267        1.5983130187       11.9423478537
  H         3.0048160648        1.4321980070       14.7152451069
  H         2.9471418925        3.1718383833       14.7221065898
  H         4.3220255738        2.4800209307       15.4049465565
  C         4.7334411173        1.3863684484       10.0526930667
  H         3.3854573922        3.0930928396        9.7935697710
  H         4.7786182596        3.5441693347       10.6566932787
  C         5.2890322242        1.5575225266        8.6596327239
  H         4.0323665121        0.6263586551       10.3477889460
  H         5.5357220424        1.1507845059       10.7271663835
  C         6.4921113890        2.4455903073        8.5382328183
  H         4.5406197731        1.9301572930        7.9635320346
  H         5.6464501974        0.6353439861        8.2720642499
  C         7.7919093143        1.8477344632        9.0849351847
  H         6.6634637668        2.6312333403        7.5095561640
  H         6.2621224790        3.3659784338        9.1257669662
  C         8.9827781546        2.7794612511        9.2973037375
  H         8.1391414511        0.9644723172        8.4450744300
  H         7.6255200764        1.3721667988       10.0606563330
  C         8.6553798161        4.1358487014        9.9385617032
  C         9.3782200012        3.4420010135        8.0451589380
  C        10.1634380816        2.0790606499        9.9865874225
  C         8.9598061110        5.2389239179        9.1552646038
  C         8.1370581614        4.5759571186       11.1175244464
  C         9.4612114258        4.7952809616        7.9221015910
  C         9.8954644653        2.8395771170        6.8811798017
  H         9.8295111028        1.5016914670       10.8184845201
  H        10.5306266314        1.3062480887        9.2254035829
  C        11.2481677981        3.0083316985       10.5434485055
  S         8.6300080692        6.7712901242        9.8146723265
  C         8.1173809061        5.9025248632       11.2289159129
  H         7.6638425273        3.9316542778       11.7626330110
  C         9.8996417407        5.3632594370        6.7787942529
  H         9.9880868156        1.7940344530        6.8102850886
  C        10.3577540206        3.4265219874        5.7678017169
  H        10.7838006846        3.7711182240       11.1832494013
  H        11.8721408332        3.5639788257        9.8504261443
  C        12.2362489922        2.0962614877       11.3130817421
  C         7.6221027797        6.6357334342       12.4315343266
  C        10.3593557257        4.7318839549        5.6475542432
  H         9.9643131989        6.4370102178        6.8024580610
  C        10.8667915804        3.0555185985        4.5765288494
  H        13.1705359443        2.6626896198       11.2376859554
  H        12.4186137532        1.1675033309       10.8068378441
  C        12.0244459035        1.8215437831       12.7590245382
  C         7.7032711003        8.0549600392       12.7334790686
  C         7.1094071722        5.8108304788       13.5690444520
  C        10.8172490963        5.4404151833        4.4375928260
  C        11.0763652883        4.1110792050        3.7571877561
  S        10.9835841095        1.5321291151        3.7534900455
  H        11.2400172578        2.6064033733       13.0490013259
  H        11.6441438865        0.8217276150       12.9540407410
  C        13.4069906839        2.1147867263       13.3520977535
  N         8.0476732980        9.0643923126       11.8195121677
  C         7.5307320061        8.6094787530       14.0024246606
  C         6.7852253165        6.3658856200       14.8090497915
  H         7.0225326679        4.7388327053       13.4716947704
  C        12.0483852396        6.3021646104        4.7344313977
  C         9.6653391502        6.2412176957        3.7912636843
  C        11.4839201954        3.7300575318        2.4788901642
  C        11.3700016948        2.3649365257        2.2843592929
  H        13.7038750098        3.1735788278       13.2666549979
  H        14.2135479552        1.7085325713       12.7042094842
  C        13.4592190813        1.6879422680       14.8062498000
  S         8.2138728311       10.4800796357       12.5937617600
  N         7.7481488039        9.9716413532       14.0677308058
  C         6.9271792191        7.8353760334       15.1212411241
  H         6.4830164847        5.7309143987       15.6271288857
  H        11.9089417497        7.0232341671        5.5135963481
  H        12.3181424698        6.9207612792        3.8348792391
  C        13.2554763834        5.4470808901        5.1252851688
  H         9.2557091481        7.0530271875        4.4830848555
  H        10.1154159763        6.7451347688        2.9702441872
  C         8.5200215477        5.2576534056        3.3203414355
  H        11.7004820790        4.4696903020        1.8043848988
  C        11.7804328614        1.5898322698        1.0112102692
  H        13.6703876901        0.5939966322       14.8732349447
  H        14.2888933509        2.1917643216       15.1877776224
  C        12.3094499614        2.1166784557       15.7005237952
  C         6.8015939401        8.4208488133       16.4647863428
  H        13.1144374432        4.9345398583        6.0591565609
  H        13.5480936918        4.6275334145        4.4966913023
  C        14.5217599296        6.3146364505        5.4213016608
  H         8.0912520063        4.6467756711        4.0954925866
  H         8.8984772393        4.5693677190        2.5614716603
  C         7.4356545632        6.1190321451        2.6792839354
  C        11.8838483453        0.1322347230        0.8757588054
  C        12.1021307004        2.3282210693       -0.2040319687
  H        11.3735162160        1.6628541023       15.3788564610
  H        12.0170000978        3.1229216536       15.4571619345
  C        12.6229443523        2.1150037742       17.1623391823
  H         7.0216381703        9.5042032203       16.4605296612
  C         6.5642003857        7.8602684744       17.6909550522
  H        14.3716446369        7.0670711136        6.1899817920
  H        14.8227647502        6.8894979509        4.4582656100
  C        15.6533383015        5.4118531865        5.8068342594
  H         7.2249501362        6.8767625862        3.3521224646
  H         7.8649771176        6.6844187961        1.8051579372
  C         6.1763285395        5.3794636841        2.2482754810
  N        11.6591130999       -0.8995179839        1.7934619402
  C        12.2883648210       -0.4371800023       -0.2936834798
  C        12.6324026771        1.7481739725       -1.3534918779
  H        12.1568074173        3.3995006839       -0.1791535065
  H        13.3096747038        2.9055176547       17.5126366314
  H        13.0262366415        1.2009595827       17.3670637486
  H        11.7667941962        2.3542904479       17.7313798426
  S         6.2269337927        6.1834222812       18.0794125989
  C         6.3915416940        8.8419177024       18.7875737808
  H        15.3704011898        4.6561137012        6.5519255247
  H        16.0303347848        4.8926774349        4.9008488871
  C        16.8480676579        6.2283967160        6.3522593654
  H         5.5800195647        5.0889466223        3.1759804073
  H         6.5475844379        4.4790353375        1.7945838075
  C         5.4311495244        6.2167872045        1.2475663677
  S        11.7675272349       -2.4044096244        1.1562472517
  N        12.3413340934       -1.8367198517       -0.2964227453
  C        12.6874404688        0.2782276995       -1.4312976074
  H        12.9619148436        2.3749881464       -2.1589142900
  C         5.9850070959        6.7701755111       19.7684669095
  N         6.0232315023        8.1451633592       19.9287030065
  O         6.6851623137       10.0150988973       18.7725607247
  H        17.2467387193        6.9744186948        5.6704133721
  H        16.5413348500        6.8188229233        7.2149242890
  C        17.9732878641        5.1692392307        6.7439988611
  H         6.1274208069        6.5178468148        0.4735898452
  H         4.6933539121        5.5751603074        0.7562439076
  C         4.7198512770        7.4481139861        1.7429575445
  C        13.0801516693       -0.4812586245       -2.5677674501
  S         5.6254114268        5.7014541009       21.1061411882
  C         6.0709145633        8.7234554483       21.2967109443
  H        17.7637649422        4.5708438742        7.5919166558
  H        18.1937969689        4.4887571982        5.9716542525
  C        19.2015198151        5.9637795164        7.2438072130
  H         5.1039231214        7.7447558303        2.6903432374
  H         3.7221024953        7.1111072936        1.9344098564
  C         4.7352525030        8.7090954126        0.7639827862
  H        12.7711155235       -1.4893495299       -2.5838036143
  C        13.5774986567       -0.1769987865       -3.7731383176
  H         5.4721006477        8.1418958568       22.0506696330
  H         5.8315378106        9.8245534444       21.1725092286
  C         7.5136655246        8.5994662874       21.9261556668
  H        19.6471781661        5.6964504378        8.2099025432
  H        18.8295397783        6.9760444103        7.2986610876
  C        20.2993571881        5.8428098932        6.2250967765
  H         5.7126778707        9.1751855935        0.7343442914
  H         4.5303406760        8.3823891036       -0.2528114597
  C         3.7645229951        9.7561127597        1.2366111685
  S        14.1105943204        1.3742135730       -4.2405011920
  C        13.6358511612       -1.2708179245       -4.7785018264
  H         8.2895742675        9.0408451674       21.2535950346
  H         7.8034280268        7.5365028607       22.1207427635
  H         7.6059717623        9.1165485782       22.8568407916
  H        21.0844351675        6.3851216694        6.5391011047
  H        20.8368696167        4.8842342150        6.1650089722
  H        19.9031734926        5.9621019600        5.2428130755
  H         3.3082973467       10.3151888658        0.4332324073
  H         2.8497608818        9.5121396345        1.7842060079
  H         4.2310590254       10.4945053683        1.7852681209
  C        14.4712399981        0.5399787982       -5.8559045002
  N        14.1504392920       -0.7486352468       -5.8969708770
  O        13.3245653993       -2.4460765562       -4.5896026027
  S        14.8957447001        1.3914969161       -7.3307356093
  C        14.1563924191       -1.6045785031       -7.1268677965
  H        14.4802629402       -2.6422406887       -6.9326375027
  H        14.9749686735       -1.2830000169       -7.7709379745
  C        12.7904278678       -1.5200353028       -7.8567638296
  H        12.5029820392       -0.4537967778       -8.0513890048
  H        12.0788309500       -1.9917957126       -7.1399406036
  H        12.7092379953       -2.1442010732       -8.7400856123
  H        -3.2970599459       14.8498732821       16.8850098110
  C        -2.9598374578       13.8215549667       16.9272651980
  H        -3.7146438846       13.2029278424       17.3490341930
  C        -1.6104665693       13.7375302281       17.5656900112
  C        -2.8525141652       13.2844887574       15.4719467196
  C        -1.5573711789       14.1791077906       19.0372198630
  H        -1.2970666314       12.7724470777       17.3449653890
  H        -1.0070071494       14.4594805268       16.9782762081
  H        -1.9282771949       12.7136385589       15.2938547102
  H        -3.6234068942       12.6908366283       15.1926626279
  H        -2.9180266605       14.1161835970       14.7617621624
  C        -2.2600613261       13.1260108848       19.8369470085
  H        -1.9600187634       15.1234400707       19.2585475005
  H        -0.4802794333       14.3272271314       19.1599978006
  C        -2.3276592075       13.3957365185       21.3387968626
  H        -3.3046354496       12.9845411396       19.4973222496
  H        -1.8043294423       12.1079770173       19.6066885105
  C        -1.1135025377       12.8083461907       22.1898603529
  H        -3.2356879054       12.8836864198       21.5160196355
  H        -2.5120590663       14.4410750128       21.5729661172
  C         0.0133543232       13.8145451079       22.5350368497
  H        -1.4916871047       12.4466192539       23.1692758659
  H        -0.6226207093       12.1344045961       21.5463572894
  C         1.2020630997       13.2280415170       23.3638417389
  H         0.4244737026       14.3579949385       21.7011048205
  H        -0.4408099655       14.6159753698       23.1410446159
  C         1.5869719323       11.8065799552       22.7862358797
  C         0.7260161266       12.5119555792       24.6047109089
  C         2.4476084953       14.1900690929       23.5445651628
  C         1.0970217797       10.6948483394       23.5037682689
  C         2.3044335299       11.3727231548       21.6074525852
  C         0.6511415608       11.1520461267       24.7158735413
  C         0.2433986792       13.1469380921       25.6885119798
  H         2.8042222627       14.5899045374       22.5887701533
  H         2.1592315760       15.0999232441       24.1884496786
  C         3.6103535861       13.4458288304       24.3620082441
  S         1.4506283347        9.1633416549       22.8139407992
  C         2.2152956332        9.9952761220       21.4650096075
  H         2.6292251214       12.0249564241       20.8838452566
  C         0.2400259494       10.5791679995       25.9248976646
  H         0.1754969374       14.2164686525       25.5663867262
  C        -0.1614479139       12.5963009346       26.8721564195
  H         3.9821015865       12.5785637900       23.7895384117
  H         3.2342624240       13.1113331697       25.3430523757
  C         4.8813539072       14.3119434002       24.6064042484
  C         2.6598600720        9.3257286284       20.1778199930
  C        -0.1631609638       11.2689036327       27.0159516247
  H         0.1356973630        9.5352023481       25.7952295757
  C        -0.5200589884       12.9487329809       28.1313852315
  H         5.5634910432       13.8434142257       25.2360833525
  H         4.5300206318       15.1220268881       25.1763224584
  C         5.5213168589       14.7599533198       23.2905623948
  C         2.5603992327        7.9068219333       19.8417462529
  C         3.2344634649       10.0998303056       19.0642671179
  C        -0.5671837638       10.5074016340       28.2072932459
  C        -0.8002891623       11.8778492525       28.9010203935
  S        -0.8543755880       14.4504111283       28.7885326999
  H         5.9968720945       15.7015440315       23.5999600779
  H         4.8419437860       14.8936567273       22.4820566235
  C         6.5450336844       13.7231285679       22.8115263650
  N         2.0537077911        6.9584963491       20.7289046965
  C         2.8115636430        7.2993230545       18.6574020227
  C         3.4271361821        9.4751238617       17.7938273276
  H         3.6944393235       11.0513532033       19.1792163322
  C         0.6898224130        9.8030687072       28.7710584857
  C        -1.7895943570        9.6014423845       28.0596146556
  C        -1.0230305700       12.2912548201       30.2666068189
  C        -0.9749307359       13.6847144222       30.3249652803
  H         7.3857932717       14.2337283523       22.3171506655
  H         6.9254399303       13.2848607582       23.7368228575
  C         6.1372227696       12.5803416392       21.9020253304
  S         1.8690119732        5.4702740663       20.0399928915
  N         2.5553095156        5.9607599124       18.6458311133
  C         3.0772139124        8.0540032148       17.5115908303
  H         3.8045062313       10.1061163746       16.9369707356
  H         1.0385487470        9.0153525693       28.0972634831
  H         0.2921875954        9.1958676399       29.5556261128
  C         1.8449255599       10.6550270285       29.2812432453
  H        -1.5489590358        8.9148645540       27.3246847316
  H        -2.0591169616        9.0773985269       29.0141318902
  C        -3.0147638183       10.3624880986       27.5621828477
  H        -0.9454211171       11.6297492911       31.1622230376
  C        -1.2139729569       14.4028654690       31.6542522264
  H         5.1537833407       12.1229266154       22.1365489872
  H         6.8798541982       11.7457075012       21.9497446286
  C         6.0182335138       13.0757948429       20.4990157813
  C         3.2122944367        7.3865930825       16.2506064670
  H         2.2299206425       11.2183385812       28.4539640765
  H         1.5804767505       11.3133824204       30.0744787813
  C         2.9604668298        9.7892040836       29.9571273774
  H        -2.8622735821       10.8640212227       26.5764055844
  H        -3.1916512596       11.1430230683       28.2342731665
  C        -4.3313323036        9.4705639086       27.3942757222
  C        -1.3369535721       15.8352596607       31.7772720307
  C        -1.5626384490       13.6546642723       32.9169035845
  H         5.3510326541       12.4005518251       20.0491775476
  H         5.5963055427       14.0207093615       20.4377311854
  C         7.3234969591       13.0299813460       19.7374712641
  H         3.2022241750        6.2753788984       16.3010101387
  C         3.6238701786        7.7668437867       14.9552013833
  H         3.4268359075        9.2435549415       29.0927003804
  H         2.5240887839        9.1361172922       30.6730444211
  C         3.9484223874       10.5878650440       30.6568685659
  H        -4.1264745854        8.5835376949       26.8677809448
  H        -4.6603115625        9.2078450582       28.3652712422
  C        -5.3897202696       10.3143085098       26.6693738548
  N        -1.1489562513       16.6924858723       30.6780576218
  C        -1.7440947040       16.4963992525       32.9033460820
  C        -1.8819176380       14.3719818239       34.0656673334
  H        -1.6894269010       12.5917379925       32.9865977886
  H         8.0802619552       12.3200277342       20.0032808863
  H         6.9497842343       12.8880610899       18.7429692761
  H         7.8475837434       13.9882402143       19.7633544755
  S         3.9364115214        9.3729099539       14.4016504555
  C         3.7055768112        6.6822547521       13.9084433612
  H         4.0920425243       11.5318601661       30.1372504156
  H         3.6568378719       10.7066816543       31.6689398552
  C         5.2640468298        9.9038240099       30.7804634991
  H        -4.9722078200       11.0274382170       25.9556265458
  H        -5.7690652778       10.9409062049       27.4788632540
  C        -6.4948174613        9.5097977896       26.0429408208
  S        -1.4067851765       18.2346265617       31.2192301488
  N        -1.7377226490       17.8499628299       32.7184480806
  C        -2.0168602602       15.8579087795       34.1028739597
  H        -2.0199995488       13.8654143755       34.9854937968
  C         4.3142547273        8.5776248817       12.8650378220
  N         4.2106677825        7.2423645967       12.7847326951
  O         3.4453112048        5.4982232003       14.0863518707
  H         5.7535156964       10.6232660123       31.3798638226
  H         5.7368670409        9.9618569855       29.7492738406
  C         5.2774243792        8.5469176168       31.4704699712
  H        -6.0846331144        9.0004391404       25.1558716118
  H        -6.9397748144        8.8699121389       26.7264327391
  C        -7.6126408152       10.4716270101       25.5577369688
  C        -2.2964631781       16.5750325864       35.3399645065
  S         4.8837154151        9.4522610524       11.4267957567
  C         4.2986076737        6.5215841176       11.4993026574
  H         5.7538009907        8.4129385225       32.4099087361
  H         4.2979118155        8.1658666204       31.8107762322
  C         6.0082040223        7.5247421226       30.5126661774
  H        -7.2070556360       11.1970721770       24.8528267822
  H        -7.9549649949       11.1100697290       26.3222370076
  C        -8.7805065833        9.7266891184       24.8492137281
  H        -2.0258798665       17.5958546700       35.3498824829
  C        -2.7827040791       16.1730415545       36.6445833769
  H         5.0281319374        6.9510044409       10.8223949523
  H         4.6720372825        5.5688726453       11.6773086742
  C         2.9299755740        6.3779557531       10.9156497237
  H         5.6521267743        7.4680954820       29.4426279933
  H         5.8448061186        6.5999551354       31.0250480426
  C         7.4854994542        7.7468254214       30.3745911105
  H        -9.1431382932       10.1874359219       23.9443359813
  H        -8.3925405660        8.7078903241       24.5174893771
  C       -10.0239504338        9.5635915415       25.7654353409
  S        -3.3456181607       14.5972189271       37.0877309023
  C        -2.7874097066       17.2128552557       37.6843166148
  H         2.5779607640        5.3771493666       10.5730428717
  H         2.2724526850        6.6293180926       11.7489632379
  H         2.6132914472        7.0074820316       10.0081453181
  H         7.9536865300        8.1113264083       31.2992375776
  H         7.7153405836        8.4296932954       29.6573349428
  H         8.1115203944        6.8594001024       30.2196901638
  H        -9.8452033676        8.8332568516       26.5445679142
  H       -10.8326849371        9.1343264654       25.2203781816
  H       -10.3710028108       10.4674834943       26.2794810989
  C        -3.7040930296       15.3997332172       38.6571035775
  N        -3.3762630060       16.7043584583       38.7741535123
  O        -2.4521912985       18.3719351227       37.5222970411
  S        -4.3884669242       14.5836209841       40.0183067894
  C        -3.3732190901       17.5862288638       39.9625381255
  H        -3.5038216304       18.6305361574       39.7305947917
  H        -4.1451580925       17.3636271858       40.6226110723
  C        -1.9667948803       17.4799117776       40.6586400580
  H        -1.9461696479       16.6143171946       41.2901140540
  H        -1.1951350149       17.6157022424       39.8614097109
  H        -1.7868446105       18.2844868309       41.3468497706
