352
i=
  H         4.4386235058        1.2358010845       12.1152413479
  C         3.8038265822        2.0897958982       12.4591000449
  H         4.3901478213        2.9930728524       12.7103919559
  C         2.7429513782        2.3737048462       11.3306917888
  C         3.1095687229        1.7347415200       13.7565494666
  C         3.4119761911        2.5104844136        9.9213455435
  H         2.1482934396        3.2112067240       11.7378307775
  H         2.0089903578        1.5449591624       11.3218024486
  H         2.5871658198        0.8345550806       13.6060385657
  H         2.2588240997        2.4175566830       14.0726335009
  H         3.7522614188        1.5771812328       14.6117795655
  C         4.1706110054        1.3219002924        9.2981222722
  H         2.7252095358        2.7918214198        9.1685266018
  H         3.9976797182        3.4356533733        9.9416691634
  C         4.9915932210        1.5138645423        8.0050484902
  H         3.5188209876        0.4765548219        9.1454311830
  H         4.9044670602        1.0452263660       10.0531129174
  C         6.1442297006        2.4625643336        8.2744587938
  H         4.2574776810        1.9649108703        7.3966872495
  H         5.2909301662        0.5402677070        7.5561497462
  C         7.3616208410        1.8070762534        8.8040294781
  H         6.3923510067        3.0293436726        7.4373003283
  H         5.9058957006        3.2839106682        8.9828942839
  C         8.6082953863        2.6540071831        8.9641483092
  H         7.5587807247        0.9685888965        8.1497167801
  H         7.0934094072        1.2939102861        9.7759443958
  C         8.3024068928        3.9744867352        9.6442369251
  C         9.1385331614        3.3847496632        7.7810909291
  C         9.6851433082        1.8391770579        9.6889002222
  C         8.5949530178        5.1178239222        8.9355509430
  C         7.9058819836        4.2793041645       10.9630400809
  C         9.0632894151        4.7588031074        7.6797346370
  C         9.6528850541        2.7809176008        6.6894947648
  H         9.2226024566        1.3781693787       10.5522414606
  H         9.7970846484        1.0059467782        8.9374053118
  C        10.9401209087        2.5378627380        9.8716518856
  S         8.1879704513        6.5872126668        9.7752012660
  C         7.8135533790        5.6759478843       11.1701238150
  H         7.6007797600        3.4958266042       11.5284817747
  C         9.4076070017        5.4606337483        6.5748794827
  H         9.5711052438        1.6922115344        6.7311015488
  C        10.0507722524        3.4338854600        5.5418948157
  H        10.8284401653        3.5555818924       10.1678771739
  H        11.5307631620        2.5553741653        8.9600489728
  C        11.7736768816        1.8609714494       10.9195443428
  C         7.4464986108        6.3160176185       12.4432482289
  C         9.9518458782        4.7868994418        5.4363971279
  H         9.3880776201        6.5386535056        6.5890502806
  C        10.5862199998        3.0191872323        4.3690997485
  H        12.8111766288        2.0654350659       11.0432722650
  H        11.8737445060        0.8067436047       10.6390633661
  C        11.1058270022        1.8633100918       12.3591378626
  C         7.3260195308        7.6877901648       12.7180584016
  C         7.0367270397        5.4784671147       13.5999310610
  C        10.5168210870        5.4690417912        4.1812419085
  C        10.8260921372        4.1042344283        3.5231868820
  S        10.7754758406        1.4719121592        3.6028431759
  H        10.7678245428        2.8064647192       12.4963716831
  H        10.1222520577        1.3454626622       12.5012812815
  C        12.1098731500        1.5054617256       13.5154469012
  N         7.6060929272        8.6156539825       11.7929824211
  C         6.9382882255        8.2364832975       13.9339282394
  C         6.6472886630        5.9875707336       14.8014191375
  H         7.0461125446        4.4064022540       13.5567954773
  C        11.8076829114        6.3394803337        4.4330169952
  C         9.3905204109        6.2711160473        3.4326078966
  C        11.4602804601        3.7189752399        2.3325835864
  C        11.3424574648        2.3393900065        2.2166808259
  H        13.1106995285        1.9552671751       13.4352999614
  H        12.3480740870        0.4373107666       13.6464131386
  C        11.6544427240        1.8996741672       14.9560950780
  S         7.6763574726       10.0636268121       12.5551124905
  N         7.0601784698        9.5986003111       13.9311461303
  C         6.6713916439        7.4595264083       15.0797374976
  H         6.3642640231        5.3060701139       15.5710505312
  H        11.5090791096        7.2251920668        5.0177646695
  H        12.3115369794        6.6944878478        3.5608250161
  C        12.9483206357        5.4620970940        4.9856753067
  H         8.9847948099        7.0241497023        4.1352479137
  H         9.9035592921        6.7815114764        2.5892192906
  C         8.3291598198        5.5167332290        2.7345513984
  H        11.7312576266        4.5250926121        1.6136466857
  C        11.5334906511        1.6703466294        0.8662279597
  H        11.2088265890        2.9008488366       14.9004752805
  H        10.7698461225        1.2484742546       15.1414516553
  C        12.6286218430        1.8109207133       16.1115047177
  C         6.3929031630        8.1721991548       16.3000392868
  H        12.5371155805        4.8831505278        5.8706265945
  H        13.3373951406        4.8550130510        4.1852698345
  C        14.1825589117        6.2239115469        5.4556837227
  H         7.8429409678        4.9262692105        3.4694721710
  H         8.8489431502        4.9368981007        1.9500930416
  C         7.3947644642        6.5412434795        2.1204034020
  C        11.6118513279        0.2921943132        0.6385840209
  C        11.6282803607        2.4050857563       -0.3916454097
  H        13.4743175036        2.5280020317       16.0235283034
  H        13.1191262444        0.8569740353       16.0659452788
  C        12.0279592521        1.7578549323       17.5115647277
  H         6.7332731950        9.1975918103       16.3242083964
  C         6.0929972265        7.7111208738       17.5517671714
  H        13.9201161196        6.8846084049        6.2705549947
  H        14.5338616879        6.8429398011        4.6433914508
  C        15.2844117675        5.1779202543        5.8705939268
  H         7.0530246801        7.3459102611        2.7206159745
  H         7.9603820907        7.0289184303        1.3409093617
  C         6.1453506850        5.9223069230        1.5618288905
  N        11.3727028534       -0.6861032393        1.6326128795
  C        12.0072955509       -0.2571676616       -0.5530432292
  C        12.0188231659        1.8585647003       -1.5914799137
  H        11.5140726188        3.5003924410       -0.3311026146
  H        11.6591067702        2.6543136700       18.0321078441
  H        12.9149137936        1.4445998223       18.0861810901
  H        11.2097371444        0.9719325517       17.6314257368
  S         5.8040900556        6.0787166491       17.9713187964
  C         6.0495153090        8.6674693295       18.7360796773
  H        14.7891784498        4.3578742548        6.4447172326
  H        15.6161113869        4.7736712151        4.9774788789
  C        16.4427333382        5.9027256790        6.4585417999
  H         5.6298441496        5.2059698745        2.1920141825
  H         6.4015060823        5.1956185225        0.7685140969
  C         5.1564668826        6.9739669448        1.0448824592
  S        11.6166543101       -2.1314428076        0.9663229906
  N        11.9206940603       -1.6483532990       -0.5537942392
  C        12.3407136356        0.4574632750       -1.7215620986
  H        12.0664777624        2.4810545338       -2.4589662364
  C         5.7972550993        6.6238323975       19.6115286008
  N         5.8637603618        7.9591540456       19.8555992916
  O         6.2226140848        9.9163506259       18.5814661427
  H        16.8390750563        6.5917326411        5.6706360669
  H        16.1259395570        6.5128355313        7.2834882774
  C        17.6218306904        4.9850871783        6.8298386451
  H         5.5942247136        7.6698450977        0.2818025505
  H         4.3973181824        6.4646669277        0.4231634926
  C         4.4704035577        7.8864405513        2.0541298220
  C        12.7416049399       -0.2526050338       -2.9052040148
  S         5.2874464781        5.6550575217       20.9810423148
  C         5.7653245678        8.6706484768       21.1276632539
  H        17.4015205840        4.3683759453        7.7481953242
  H        17.7196310443        4.1680178188        6.0758765125
  C        18.8237405106        5.8710148350        7.0089132003
  H         4.8507275778        7.6650998817        3.0667475512
  H         3.4321982282        7.6164756449        2.1098755887
  C         4.6344504291        9.3978103069        1.6279961860
  H        12.4797448929       -1.3194215308       -2.8159936951
  C        13.2943424818        0.1311294735       -4.1008278772
  H         5.0481910368        8.3174974503       21.8220443898
  H         5.4846691260        9.6956037087       20.8551870989
  C         7.1751011676        8.5605053742       21.7149618313
  H        19.3433901143        5.4992465572        7.8311594371
  H        18.6231863545        6.8965973782        7.2936352292
  C        19.6688387097        5.7219322927        5.7247322943
  H         4.8163070387       10.0154937649        2.4542563536
  H         5.5756480722        9.4379195357        1.1093472076
  C         3.4415498077        9.7992023830        0.6763370845
  S        13.8322835063        1.6525850916       -4.6155403635
  C        13.3771377897       -0.8922249877       -5.1253290479
  H         7.4114246459        7.6735417690       22.3749883263
  H         7.3065387325        9.4021203578       22.2959452563
  H         7.9944417130        8.4640107955       20.9939400710
  H        20.5915981508        6.1309502751        5.9010931310
  H        19.8300799239        4.6364881349        5.5702151989
  H        19.2184217497        6.1195542522        4.8732389671
  H         2.5494538035       10.1776990775        1.1547106050
  H         3.7094579176       10.6209907592       -0.0016773242
  H         3.1617209281        8.9581154301        0.0188058411
  C        14.2180715144        0.9481514802       -6.1574501280
  N        13.9262717627       -0.3461142731       -6.2254830464
  O        13.1529098122       -2.1306732809       -4.9262297816
  S        14.7432848940        1.7840095248       -7.6140433458
  C        13.9830387191       -1.1023935857       -7.4379484717
  H        14.2398739565       -2.1603691018       -7.2943831448
  H        14.8275562987       -0.7938457579       -8.0724691320
  C        12.6096988845       -0.9078520715       -8.2511994702
  H        12.2592697423        0.0963501693       -8.4003163201
  H        11.7853289985       -1.4036172206       -7.7629635490
  H        12.6912208354       -1.2426036917       -9.3026787371
  H        -3.2498014341       15.0908374817       15.9682215449
  C        -3.3267846632       14.0783106509       16.1959130906
  H        -4.3161841231       13.6894613207       16.4658341241
  C        -2.3668701909       13.8342770144       17.4066623751
  C        -2.8574077182       13.3177832058       15.0174548701
  C        -3.1113344530       13.6571303853       18.6818302718
  H        -1.6436748339       13.0815214601       17.2095264937
  H        -1.8150854216       14.7543850326       17.5490982702
  H        -3.7401290870       12.9927886394       14.4619658086
  H        -2.3726514821       14.0312952783       14.3943697709
  H        -2.2230868342       12.4835788243       15.2962188062
  C        -2.1945488867       13.2535041341       19.7974348171
  H        -3.8670908918       12.8513922709       18.7098415913
  H        -3.6706726941       14.5212914384       18.8597360002
  C        -2.6831846786       13.2521738729       21.2639930618
  H        -1.7171451758       12.2576683554       19.5121851957
  H        -1.4926566822       14.0376619078       19.8300117373
  C        -1.7338681433       12.6132377759       22.3036398061
  H        -3.5306544669       12.6459819221       21.2643129858
  H        -2.9744488639       14.3216756810       21.5022136157
  C        -0.4409820288       13.4026862187       22.4996171032
  H        -2.2284476101       12.4663910290       23.2307433782
  H        -1.3618794739       11.6596452627       22.0353734427
  C         0.7130691366       12.6802099616       23.1477211433
  H        -0.0588559258       13.8546486212       21.5502074510
  H        -0.6921378643       14.2742681605       23.0470410910
  C         1.0400284025       11.3574166462       22.5076469737
  C         0.2928634581       11.9854114666       24.4106569210
  C         1.8282817803       13.5931877215       23.4838812302
  C         0.9180691573       10.2560343781       23.3715317710
  C         1.4642426539       10.9644975610       21.2371435427
  C         0.4449273513       10.6408099490       24.5711068597
  C        -0.0946363829       12.6392399658       25.5462930908
  H         2.2541544855       14.1975302256       22.6701292785
  H         1.4503755867       14.3585347213       24.2382922200
  C         3.1219579117       12.9294824751       24.0026388510
  S         1.3969880500        8.7171913102       22.7307800643
  C         1.7901934343        9.5891237177       21.2386426183
  H         1.6482520798       11.7088595243       20.4510867635
  C         0.1897131764       10.0545115825       25.7912837634
  H        -0.2139226814       13.7735536768       25.4533528874
  C        -0.3404264267       12.0691749469       26.7693299732
  H         3.4434347039       12.1531734367       23.2661124083
  H         2.9820823985       12.3245693271       24.8879391073
  C         4.3350086370       13.8482452815       24.2116670466
  C         2.2279532557        8.7978300790       20.0565377251
  C        -0.2587739219       10.7297163752       26.9387515188
  H         0.2313430183        9.0351681404       25.8402506456
  C        -0.7367581664       12.5151740691       27.9860496833
  H         5.0826988523       13.2859103257       24.7134000555
  H         4.1357140025       14.6883176877       24.8334299944
  C         5.1419994987       14.3147537501       22.9083277150
  C         2.1247884176        7.3856968290       19.7994188379
  C         2.7398488179        9.6419910049       18.8944281516
  C        -0.6150815445       10.1875958489       28.2586570899
  C        -0.8225255561       11.4886930601       28.8790038167
  S        -1.0648307047       14.1116733194       28.6592861871
  H         5.2996946455       15.4358550826       22.9652105178
  H         4.4746287289       14.1697932023       21.9949906999
  C         6.4781757556       13.6275298040       22.6108517064
  N         1.8456730970        6.3440691458       20.7007642449
  C         2.3605079855        6.8308698096       18.5322661309
  C         2.9693459910        9.1054990605       17.6000835670
  H         2.9728495638       10.6691873206       19.0326500155
  C         0.4474126290        9.2306024169       28.8604982345
  C        -1.8964560294        9.3613630394       28.0194761989
  C        -1.2019395038       11.9749264125       30.1815555567
  C        -1.3615341068       13.3447442797       30.1926450892
  H         7.1270061585       14.3667520128       22.1072136986
  H         6.9073957088       13.4909414969       23.5530186729
  C         6.4408937949       12.3457293931       21.7867385406
  S         1.9525069248        4.8780498636       19.9510160620
  N         2.2531976454        5.3815936126       18.4396022362
  C         2.7838460600        7.6509193956       17.4509040667
  H         3.3591086429        9.7408149560       16.8574750116
  H         0.4953848318        8.4259764952       28.1360699803
  H        -0.0339976684        8.7628420397       29.6927523046
  C         1.7274131189        9.9775147518       29.3092846493
  H        -1.7734637212        8.4403186573       27.4231375547
  H        -2.3424702638        9.0953268897       28.9888709566
  C        -3.0050130042       10.1934789371       27.3780650291
  H        -1.2231329811       11.3012381552       30.9968337261
  C        -1.6701285239       14.1253374205       31.4692607222
  H         5.6670598017       11.6178056265       21.9885052165
  H         7.3133009776       11.8472182258       21.9771802966
  C         6.4285193049       12.6953645723       20.2625791649
  C         3.0959626577        6.9454635998       16.2334506917
  H         2.0928988128       10.4936519702       28.4180741200
  H         1.4989121891       10.7244144342       30.0794604046
  C         2.7338106305        8.9131775399       29.8531128112
  H        -2.8648372383       10.4377457446       26.3449412104
  H        -3.1738253261       11.0952964699       27.9394348651
  C        -4.3517986420        9.4973373763       27.4257903839
  C        -1.6138016099       15.5137512190       31.6110371767
  C        -1.8874103980       13.4925398936       32.7742776696
  H         5.8438960863       11.9968480952       19.6881558171
  H         6.0432039665       13.6826308975       20.0133145212
  C         7.8865131701       12.5177761190       19.7684792603
  H         2.8125827269        5.9449271876       16.2209626154
  C         3.3470497644        7.3355891369       14.9119968993
  H         2.9130554137        8.2832526438       28.9707995141
  H         2.2436052058        8.3845818500       30.6349790246
  C         4.0460242710        9.6206928541       30.3869597890
  H        -4.3545293823        8.6591608655       26.7526831432
  H        -4.6132722853        9.0544993232       28.4392421014
  C        -5.4677270017       10.3588036021       26.9149772706
  N        -1.4236426914       16.4145903184       30.5537947421
  C        -1.9176871581       16.2266540746       32.7187791921
  C        -2.0780815860       14.1477252131       33.9250755111
  H        -1.6828568978       12.4731120448       32.8269919469
  H         8.1452825522       12.8728260333       18.7555646695
  H         8.5508646208       12.9333802232       20.4903693083
  H         8.1447656742       11.4428268745       19.6709364127
  S         3.6599912114        8.7997687143       14.2651167349
  C         3.5153158373        6.1838491054       13.9333612979
  H         4.4071691876       10.5063822021       29.8091717962
  H         3.8063787543       10.0649369240       31.3238538499
  C         5.2777191161        8.6717990734       30.5732957677
  H        -4.9990861571       10.9303152811       26.0565369009
  H        -5.6718086810       11.1238594423       27.6698664096
  C        -6.6461773411        9.5701719290       26.3424171336
  S        -1.1810143701       17.8514718835       31.1825788616
  N        -1.7937339209       17.5987761352       32.5964164514
  C        -2.1581721187       15.6377655265       33.9452988313
  H        -2.1579419522       13.5088616992       34.7796153461
  C         3.9266835086        8.0102240608       12.7259439444
  N         3.8311007247        6.6616774327       12.7473837213
  O         3.2271726508        4.9819305019       14.1560945829
  H         6.1286664020        9.2532373709       30.7864413071
  H         5.3747867924        8.0919370085       29.6565790949
  C         5.0502007678        7.6946863658       31.7030387679
  H        -6.3358344387        8.9163023680       25.4891762626
  H        -7.1182546964        8.9004173261       27.0529507612
  C        -7.7032367477       10.4720034362       25.7262185608
  C        -2.5792571801       16.4447998621       35.0177447059
  S         4.2727645301        8.8433537175       11.2295742156
  C         3.8790432877        5.9100864320       11.5178218837
  H         5.7857120579        7.9194063639       32.5181149872
  H         4.0574608482        7.9616786684       32.0605882164
  C         5.0314694278        6.2447905905       31.2844544952
  H        -7.2877130318       10.9624538605       24.7792334552
  H        -7.9999716546       11.2613546219       26.4446831074
  C        -8.8697876284        9.6358547981       25.3462844020
  H        -2.6228161888       17.4810172812       34.8390479323
  C        -2.9316992874       15.9953303320       36.2853998168
  H         4.7106134344        6.1357481033       10.8543095568
  H         4.0672771689        4.8570009352       11.8241592110
  C         2.5496833372        6.1884827212       10.7684383117
  H         4.3716423922        6.0413578603       30.4978852633
  H         4.5705615445        5.8111732131       32.1122397069
  C         6.3849232384        5.6201856189       30.9430159842
  H        -9.0472244647        9.8327802547       24.3354061072
  H        -8.5580589185        8.5606059327       25.4694301245
  C       -10.1402046042        9.6869779437       26.1541133873
  S        -3.4513737457       14.4689014764       36.8369244871
  C        -2.9877037447       17.0661040679       37.2775143838
  H         1.8674902395        6.7333889086       11.4250993660
  H         2.6785495864        6.6862235803        9.8717831001
  H         2.2210472952        5.2587025283       10.3806203668
  H         7.1461672588        6.1212578593       31.5396161246
  H         6.6537428071        5.5743866599       29.9179857387
  H         6.4169956636        4.5966492240       31.2429952732
  H       -10.0746773793        9.2671982161       27.1779640416
  H       -11.1061821848        9.3088512252       25.7525182890
  H       -10.2706116359       10.7591339869       26.3056193241
  C        -3.6621325025       15.2308498162       38.4435435259
  N        -3.5576173428       16.5676817716       38.4176625048
  O        -2.7575640174       18.2238588492       37.0259844378
  S        -4.3571779486       14.5274083099       39.9079354434
  C        -3.9117728404       17.5331072024       39.4552455193
  H        -4.4815527398       18.3737326934       39.0693220445
  H        -4.6998788239       17.1009391567       40.0411605745
  C        -2.6343887453       17.8797623464       40.2973042974
  H        -2.5349531949       17.1203709762       41.1547057618
  H        -1.7781895929       17.8527598065       39.5964374853
  H        -2.5922841512       18.8748008326       40.6632370981
