352
i=
  H         5.3044082365        2.0847171443       12.5606626841
  C         4.3323974336        2.7163734645       12.6975250366
  H         4.8112376172        3.7752850991       12.7970355523
  C         3.3156313328        2.6653650550       11.5808022487
  C         3.6991807559        2.2581948181       13.9792862877
  C         4.0165292600        2.9702417198       10.3032077777
  H         2.4457528478        3.4346624757       11.7111571815
  H         2.7567360021        1.6618289727       11.4746851227
  H         4.3222990344        2.5791761518       14.8805121812
  H         3.7262179377        1.1037818298       13.9928796432
  H         2.7085606840        2.7851113187       14.2416843318
  C         4.4984333737        1.6358971115        9.6630641312
  H         3.3530629791        3.4450771213        9.4447016649
  H         4.8385118384        3.8103157889       10.4891795544
  C         5.3073299140        1.9266677447        8.3548407670
  H         3.6068334313        1.0023531176        9.2559515808
  H         5.3184558127        1.0658674885       10.2627837086
  C         6.6002627323        2.7340837934        8.5093838640
  H         4.6146334193        2.4222133213        7.5165964714
  H         5.6108686484        0.9002227484        7.8649609499
  C         7.9085066942        1.9510483379        9.0250020704
  H         6.8359253696        3.0107981267        7.3894070987
  H         6.4047270119        3.7511868572        9.0171657041
  C         9.0390398213        2.8865357703        9.1975631164
  H         8.0464399967        1.0873772835        8.2918467808
  H         7.5757954514        1.4221342280       10.0263351074
  C         8.6609682254        4.2226865830        9.8848933974
  C         9.5135924710        3.5160429081        7.9113818344
  C        10.1590754201        2.1867359991       10.0457651049
  C         8.9195769046        5.2611903347        9.0049511220
  C         8.2289013193        4.6020327782       11.1278754052
  C         9.3657587543        4.8701615399        7.7674857862
  C         9.9960864314        2.8278197703        6.7834054269
  H         9.7605785797        1.7879077890       11.1092588618
  H        10.4712917509        1.2127064987        9.4073800220
  C        11.4279184902        3.0841195571       10.2657454370
  S         8.5493245920        6.7789389018        9.7372490350
  C         8.1866103833        5.9385324114       11.2722709516
  H         8.1357716411        3.8016187388       11.9308596195
  C         9.7271521345        5.6030966082        6.6681568609
  H        10.0862092189        1.6573908464        6.8409445211
  C        10.3602889612        3.5869228917        5.6701636334
  H        11.1607550110        4.2058153972       10.5325754674
  H        11.9773505886        3.1751066930        9.2163738830
  C        12.4458601133        2.5775597099       11.2873839025
  C         7.8277862858        6.6689720534       12.5638706207
  C        10.2730664311        4.9804561897        5.5751501286
  H         9.5599415481        6.7881769767        6.6524617741
  C        10.8158134788        3.2024706255        4.4695644721
  H        13.4186633857        3.2343714417       11.2776832739
  H        12.7923321769        1.5036014580       10.9671413395
  C        11.8829852386        2.6652156606       12.7075882014
  C         7.7919264906        8.0581212208       12.7699624125
  C         7.3716828913        5.7775508204       13.6667428659
  C        10.6667431625        5.6502443347        4.2478886299
  C        10.9428209788        4.2225745924        3.5512112808
  S        11.1336017079        1.6490511838        3.7424169448
  H        11.5019239231        3.7264483510       12.9804679823
  H        11.0036409320        1.9220617391       12.8270308229
  C        12.9678550834        2.2453811317       13.7674626855
  N         8.1729192613        9.0188415267       11.8449397753
  C         7.5687725522        8.6296859100       13.9674406880
  C         6.9424644210        6.4385394544       14.8403766454
  H         7.2055432298        4.6367917244       13.4754274473
  C        11.9467182445        6.5364878539        4.3282184513
  C         9.4794265766        6.4335907582        3.5418396539
  C        11.2788346112        3.7610704162        2.2563821921
  C        11.4132678835        2.4036319878        2.1530280848
  H        13.9545048304        2.8626597841       13.5495655359
  H        13.2732063845        1.1209979682       13.5658290352
  C        12.4230123119        2.4366299428       15.1658627048
  S         7.9191443739       10.5163467669       12.3877336891
  N         7.6505141992       10.0729358645       13.9403206077
  C         7.1372038729        7.9163616732       15.0707842106
  H         6.5051187088        5.7597599689       15.6107176547
  H        11.6413656842        7.4796503038        4.9211532745
  H        12.2268512274        6.9854386851        3.3107117427
  C        13.1276225920        5.8018814956        5.0149129299
  H         9.1788941404        7.3233294086        4.2445280353
  H         9.9110140625        7.0530170972        2.6531580494
  C         8.2510680025        5.5777465904        3.1418247066
  H        11.4170133662        4.4863164446        1.3446436969
  C        11.7804777382        1.5071365519        0.9539996588
  H        12.1902813143        3.5877987587       15.2560380976
  H        11.3883166622        1.8791125026       15.3283666792
  C        13.4223197243        2.0069389291       16.3061200990
  C         6.8681330282        8.5415577212       16.3538484468
  H        12.6195002294        5.3623097927        5.9838500235
  H        13.3394089076        4.8085674004        4.3965337788
  C        14.3351102987        6.6074329439        5.3482248447
  H         7.7947637941        5.0412175180        4.0781065414
  H         8.4986228518        4.6623504290        2.4433045460
  C         7.1665126032        6.4429622062        2.5758362739
  C        11.8366293365        0.1380949133        0.8186163268
  C        12.0545174206        2.2605432922       -0.3215072876
  H        14.4460663773        2.5598731279       16.2452767813
  H        13.7199438463        0.9191162978       16.1039969986
  C        12.7855355116        2.1011845102       17.6936664673
  H         6.6448841634        9.7038275739       16.2629897829
  C         6.5768699279        8.1364416098       17.6256291700
  H        14.1620718029        7.4981965676        6.0622874280
  H        14.7836612989        6.9523708881        4.3415305736
  C        15.3553788884        5.7312285231        6.1061148256
  H         6.9181930642        7.3251355028        3.3180436130
  H         7.7059027393        6.9555686855        1.6750425726
  C         5.9116365002        5.7139522456        2.1922715145
  N        11.6004199021       -0.7795585708        1.8232222370
  C        12.1563655734       -0.5019353025       -0.3247953944
  C        12.3347461974        1.5649934585       -1.4987628900
  H        12.0654276507        3.4225655823       -0.2187008663
  H        13.5318497095        1.5731657070       18.4044386536
  H        11.8051502065        1.5316670446       17.7153905549
  H        12.5188374945        3.1802916874       18.0086568138
  S         6.5248791081        6.4747388642       18.1275974379
  C         6.3305922925        9.0791108810       18.7066619820
  H        14.6091472139        5.5531130429        6.9785764405
  H        15.4734176915        4.6914294640        5.5788327736
  C        16.6739726887        6.3917794879        6.3336967365
  H         5.6833218443        4.7768843423        2.8320747774
  H         5.9135083230        5.3061126649        1.1196643963
  C         4.7537006973        6.6934418888        2.2413950138
  S        11.5754536463       -2.2592702106        1.2573334560
  N        12.0779408988       -1.9376577569       -0.2086119919
  C        12.4018846856        0.0943229482       -1.5169556235
  H        12.5073154103        2.1313055094       -2.4308400250
  C         6.0918112852        7.0730851550       19.7210597410
  N         6.0321755826        8.4125292614       19.8095965980
  O         6.3614303110       10.3109949924       18.6456058830
  H        17.1245556525        6.8918056680        5.3654461045
  H        16.5044029776        7.3274945611        7.0364151257
  C        17.5826150922        5.3132284199        6.9544017969
  H         3.8418107258        6.0355026183        1.8420906387
  H         4.5689803170        6.9320813162        3.3944801146
  C         4.7515510145        7.9402351479        1.3588911918
  C        12.7546188056       -0.6245061910       -2.7595027130
  S         5.5179747605        6.1106244526       21.1015194874
  C         5.7913511766        8.9301871948       21.1876406459
  H        17.2033458650        4.9224713067        7.9733398996
  H        17.7788227420        4.4494079507        6.1785942506
  C        18.8793946249        5.9541391718        7.3426632798
  H         4.8324955948        7.6731950223        0.2196624002
  H         5.6672650335        8.6233356999        1.5519387921
  C         3.5897035814        8.9112887140        1.6138885628
  H        12.5410921921       -1.7733823010       -2.6697278877
  C        13.1187924141       -0.3838353263       -4.0259740280
  H         4.7562305147        8.5725155628       21.6459954184
  H         5.5435114438       10.0362988164       20.9329658299
  C         7.0823713671        8.8594209730       21.9940413759
  H        19.4723732844        5.2775929558        8.1233602616
  H        18.6375606142        6.9252552441        8.0029208209
  C        19.8452176685        6.0348832000        6.2172428180
  H         2.6243624390        8.2507231559        1.3451740392
  H         3.4890355499        9.1122499998        2.7992556235
  C         3.5813622115       10.2587935108        0.9243010731
  S        13.6331411603        1.1862517610       -4.6676250139
  C        13.2634505835       -1.5068741537       -4.9969496892
  H         7.1404654676        9.5978676826       22.8900551293
  H         8.0600456984        9.0394231911       21.3227237043
  H         7.2620065227        7.7889219610       22.4687099124
  H        20.9092616367        5.9271129744        6.6606532013
  H        19.6649199175        5.1911445242        5.4323191937
  H        19.6679132951        6.9703305973        5.5559703997
  H         2.5390489591       10.7040700974        0.9834844473
  H         4.3194455779       10.9924169475        1.4026012839
  H         3.8559585405       10.0373347288       -0.1622715659
  C        13.8862961898        0.3500749079       -6.2358473973
  N        13.6569842237       -1.0211700627       -6.1484202742
  O        13.0449133561       -2.6622278974       -4.7445859832
  S        14.6944351131        0.9623843549       -7.6710328196
  C        13.8963734274       -1.8547254764       -7.3251830643
  H        14.3080870533       -2.8593621833       -6.9067267625
  H        14.7656080238       -1.5751314718       -8.0635140106
  C        12.5913790632       -2.1076249117       -8.1515741078
  H        11.7211527760       -2.3760130958       -7.4473757764
  H        12.8688482466       -2.8848273074       -8.9494576171
  H        12.4403508401       -1.1320905284       -8.7282311117
  H        -3.8069484570       14.8397688902       16.6618236719
  C        -3.4025655830       13.7602130835       16.4101961712
  H        -4.4244656112       13.1490368980       16.3937841009
  C        -2.4087738239       13.2863878953       17.5409880795
  C        -2.8009949562       13.6598767963       15.1351279401
  C        -3.0391568743       13.4920808288       18.9086474110
  H        -2.1476685028       12.1400169970       17.4733842991
  H        -1.3961137615       13.9064954437       17.5317612141
  H        -3.5202913310       13.6267455810       14.2435451200
  H        -2.1163905896       14.5118265947       14.8483410330
  H        -2.2010932321       12.7236176936       14.8892094710
  C        -1.9518135203       13.2876285641       20.0356972923
  H        -3.9733047744       12.7379435083       19.0216706579
  H        -3.5469458221       14.5950172188       18.9095719998
  C        -2.4258302000       13.4742766668       21.4680699723
  H        -1.4856757566       12.2574435892       19.8857815167
  H        -1.0683516307       13.9903955252       19.8346739655
  C        -1.4576591666       12.8053709820       22.4868143357
  H        -3.4973425062       12.9605576291       21.5337263779
  H        -2.5220845510       14.6047216029       21.7922377260
  C        -0.2097520048       13.6563714927       22.6849231485
  H        -2.0034762257       12.6536209239       23.5238312326
  H        -1.2805447157       11.7347116263       22.0349908835
  C         0.9734187146       12.9274203074       23.3541694034
  H         0.2828876535       14.1693592712       21.7555361393
  H        -0.4856043641       14.5787644328       23.3685427818
  C         1.3323455830       11.5456102777       22.6259096218
  C         0.5055876522       12.2583141390       24.6455597163
  C         2.2081085872       13.8126901555       23.4240563948
  C         1.1177521984       10.5003047208       23.5320695467
  C         1.8518244737       11.0978094335       21.4205767822
  C         0.5962660343       10.8932943681       24.7184672653
  C         0.0309518141       12.9241992410       25.7919507556
  H         2.3816649135       14.2917131225       22.3561620769
  H         1.8606825768       14.6701031173       24.1684022394
  C         3.4778108172       13.0808380746       23.9930184978
  S         1.5789727100        8.9690964864       22.8735063544
  C         2.0661559356        9.8055705606       21.3805518629
  H         1.9050328304       11.9079836409       20.6045427875
  C         0.2537206781       10.1499425247       25.7844519193
  H        -0.0308987269       14.0920612481       25.8235341069
  C        -0.3146103187       12.1636516365       26.8834866869
  H         3.7606000323       12.1441847660       23.3290455360
  H         3.1196607234       12.6164602217       25.0198958095
  C         4.7787456203       13.9734013036       24.1704868432
  C         2.5174119932        9.0655845681       20.0880858983
  C        -0.1872673624       10.8261324336       26.9391018523
  H         0.3991249031        8.9703387864       25.7640911621
  C        -0.7349924465       12.6084178622       28.0867745681
  H         5.5563690543       13.3713878938       24.8516572985
  H         4.4700204578       14.9704743441       24.7420940728
  C         5.4607236202       14.2392286751       22.8066499722
  C         2.4931661330        7.6851852166       19.8281114659
  C         2.7475726538       10.0229656422       18.9703131908
  C        -0.6487840313       10.1297716071       28.1761121761
  C        -1.0012519749       11.5446870832       28.9298585756
  S        -1.0070958562       14.2036446456       28.7587209993
  H         6.1686586652       15.1574632199       22.6898244240
  H         4.5766553754       14.5925029985       22.1618054358
  C         6.2142709780       13.0275712033       22.3037324517
  N         2.2178335605        6.6711841810       20.7542440538
  C         2.7366349215        7.2451959035       18.5621097085
  C         3.1225997506        9.5083517517       17.6655226253
  H         2.8814229708       11.1504403357       19.0425671264
  C         0.5084599366        9.4513188080       28.9257785828
  C        -1.9249013525        9.2992202544       27.9168660470
  C        -1.3728908659       12.0305399681       30.1809087822
  C        -1.4123561778       13.3781569318       30.2746570004
  H         6.9982657967       12.7121388308       23.1096210842
  H         5.6239112133       12.0297710497       22.1700972252
  C         6.9250690801       13.3123732765       20.9988469813
  S         2.1523995243        5.2426190209       20.0077642227
  N         2.6235669865        5.8062583425       18.5286382210
  C         3.0672449308        8.0228687384       17.4511198407
  H         3.4601275624       10.2563915189       16.8839896105
  H         1.0244556736        8.8242671099       28.0895798136
  H         0.0032001606        8.6327346771       29.5826608341
  C         1.6503194365       10.2808238183       29.6101972189
  H        -1.5133530459        8.4237451920       27.2680497826
  H        -2.2440682095        8.8696023769       28.9543795937
  C        -2.9881448830       10.0952083287       27.2749626669
  H        -1.5569048446       11.2475249225       31.0278370877
  C        -1.7564520049       14.2062992905       31.5102490287
  H         7.7570368168       12.4844227707       20.8981287643
  H         7.5532149685       14.2872099100       21.1808284050
  C         5.9585104622       13.2405169780       19.8197359969
  C         3.2890314393        7.3923348963       16.1830334531
  H         2.0018293581       11.1784443494       28.9709045866
  H         1.4130086002       10.7029725506       30.6397966601
  C         2.8539846450        9.3315600919       29.7366257814
  H        -2.6669866166       10.5391982687       26.2439174486
  H        -3.3449404834       11.0196763900       27.8749747668
  C        -4.2102523623        9.2487349222       26.9207125035
  C        -1.7466165804       15.5757357688       31.6259542099
  C        -2.0201021264       13.4112835919       32.7385836011
  H         5.3018187385       12.2659657495       19.8667913657
  H         5.2076844290       14.1329359426       19.8291258306
  C         6.7181664455       13.4528227325       18.4578952938
  H         3.2956623829        6.2237313372       16.2560032679
  C         3.6285007189        7.8082923321       14.8960408462
  H         3.0247175277        8.7824474838       28.7349447210
  H         2.6389992836        8.4777990849       30.4845869152
  C         4.1944704235        9.9806948132       30.2469939260
  H        -3.9724564176        8.4548303507       26.0927403251
  H        -4.7031718141        8.7249249359       27.8659451723
  C        -5.2117484199       10.2143048393       26.3620351668
  N        -1.4103697801       16.5118648617       30.6053606414
  C        -1.9090832104       16.2546539894       32.7907379026
  C        -2.3674736840       14.1518669128       33.9149409757
  H        -2.0906054527       12.2901694923       32.7039376407
  H         5.9466557534       13.1355847653       17.6832514548
  H         6.8905926467       14.5896511418       18.3783332179
  H         7.6499308010       12.7708865383       18.4362779600
  S         3.8796178314        9.4544994466       14.5516885838
  C         3.7616937383        6.8176473570       13.8386297957
  H         4.3985265604       10.9621050702       29.6431670232
  H         3.9795121148       10.3022112973       31.3422505446
  C         5.3760604789        9.0617819452       30.2307220316
  H        -4.7314992991       10.5883087649       25.3682976520
  H        -5.1274548496       11.1118986351       27.0822717975
  C        -6.6141567747        9.5770997135       26.3526489843
  S        -1.3268909524       17.9971804016       31.1532338602
  N        -1.7216883084       17.6526768478       32.6763560422
  C        -2.2968622619       15.6355263573       33.9923434223
  H        -2.6658858437       13.5369100450       34.8238525663
  C         4.2263137412        8.8852269382       12.9594088762
  N         4.1090940472        7.5512490675       12.7765184107
  O         3.6148898489        5.6187427318       13.8493266944
  H         6.3661827881        9.5989679843       30.5799540825
  H         5.6448061244        8.7083596917       29.1223113352
  C         5.2523688400        7.7365899774       31.1352843797
  H        -6.5619671752        8.5740125879       25.7839602757
  H        -7.0795776406        9.2800400097       27.3706191035
  C        -7.5601200585       10.5217462140       25.6103806861
  C        -2.5119094152       16.3885333036       35.1700769727
  S         4.7641205348        9.8882053139       11.5721813932
  C         4.3089427546        6.9618094790       11.4385319918
  H         5.3407101514        8.0837268172       32.2129620510
  H         4.2024303442        7.2894819145       30.9954084079
  C         6.2483144868        6.7116337192       30.8534035813
  H        -6.9483243045       10.8129706750       24.6543669514
  H        -7.9199779106       11.4358407949       26.2928167765
  C        -8.7303352458        9.8225265398       25.0475622925
  H        -2.4137798567       17.5542931422       35.0787573900
  C        -3.1027560045       16.1083727919       36.4028803490
  H         5.1954908418        7.5251246628       10.9110394511
  H         4.7376046953        5.8994241595       11.6829942386
  C         2.9389176468        6.8949766617       10.7376873711
  H         7.2888397335        7.2603765459       30.9482129721
  H         6.0986611616        6.3938307612       29.7401973165
  C         6.2399250328        5.3672109933       31.6735395201
  H        -9.1170115324       10.4013590582       24.0742959743
  H        -8.5360909045        8.7474910290       24.5564169357
  C        -9.8173699323        9.7491728020       26.1609811034
  S        -3.6484663842       14.5966953290       36.8970539864
  C        -3.2112953536       17.1162720541       37.4377659405
  H         3.0304180667        7.1960376910        9.6423539599
  H         2.5508675860        5.8223029952       10.8011799608
  H         2.2322399574        7.5738589601       11.3331499367
  H         7.2605731858        4.8738800874       31.4541239167
  H         5.3679991738        4.7531631692       31.1982563593
  H         6.1351299056        5.5636161393       32.8274121016
  H       -10.8242910685        9.7113891405       25.6105589502
  H        -9.8135999237       10.6978534340       26.8171022933
  H        -9.6211033322        8.8114131649       26.8058150611
  C        -3.8896958261       15.2995605424       38.5248016771
  N        -3.6564119737       16.6032495233       38.5762918411
  O        -2.8861199755       18.2512719968       37.3303503219
  S        -4.5992510808       14.5290151616       39.8996633072
  C        -3.7952662409       17.4282331869       39.7966210201
  H        -4.2919474627       18.3658589200       39.3407678052
  H        -4.5969679720       17.0193001989       40.5232919591
  C        -2.4755044515       17.7233237037       40.3985155390
  H        -1.6396675203       17.9724600479       39.7043739593
  H        -2.5522239878       18.5479191660       41.1341536483
  H        -1.9603921320       16.9201785766       40.9854051526
