352
i=
  H         2.4768175567        3.3406840255       12.6352195141
  C         3.0682900983        2.4174346506       12.4938176148
  H         2.3871066879        1.7085925059       12.1563685791
  C         4.1938973791        2.6429328602       11.4656889826
  C         3.6737682331        2.0128907373       13.8491805201
  C         3.8810679995        2.4441346738       10.0457740997
  H         5.1188838531        2.1742607102       11.7738725677
  H         4.5444766025        3.7495019520       11.5636229325
  H         2.9422414820        1.8265944216       14.6236083245
  H         4.2751302833        2.8854804677       14.1023952237
  H         4.4282323136        1.2506753358       13.7667912858
  C         4.5886754298        1.2386822781        9.3247042392
  H         2.7970758689        2.3732208192        9.9852324701
  H         4.0346969713        3.3534047804        9.4843049074
  C         5.3249068064        1.6608307014        8.0380872411
  H         3.7420647513        0.5024679148        9.0083560337
  H         5.2183832832        0.7074322962       10.0432664943
  C         6.5741416932        2.5241554927        8.2770838971
  H         4.5629190297        1.9522664757        7.3503586806
  H         5.7898441249        0.7401108231        7.5769358059
  C         7.8535734705        1.7578604132        8.7105935650
  H         6.8120725805        3.2452311236        7.4328992667
  H         6.2919196783        3.1305643951        9.1258961264
  C         9.0619351334        2.6670235193        9.1140277883
  H         8.1613783105        1.1980174600        7.7963973147
  H         7.6405200441        0.9423968336        9.4442710447
  C         8.7550447151        3.9766866027        9.7840498047
  C         9.6476632207        3.3929514773        7.9146504208
  C        10.1276613448        1.8823344934        9.7923140710
  C         9.0078010793        5.0962569701        8.9724144825
  C         8.0924117959        4.4516614336       10.9673607869
  C         9.5389810259        4.7201586549        7.7507802946
  C        10.2703501835        2.8346964892        6.8266562491
  H         9.7069717690        1.4144378925       10.6159694287
  H        10.2935267438        0.9048856524        9.3237777046
  C        11.4392536678        2.6845431026       10.0525994214
  S         8.5926176435        6.6210453027        9.6912133091
  C         7.9246109748        5.8087786609       11.0938436649
  H         7.6424281580        3.6988448835       11.6030669114
  C         9.9141182600        5.3568502500        6.6076311502
  H        10.3005736421        1.7568988565        6.8000976942
  C        10.5845092374        3.3739767187        5.6135637262
  H        11.2922776886        3.7602865361       10.2114134063
  H        12.0709619425        2.6466026721        9.1106334229
  C        12.3273993850        2.1009764732       11.2021292406
  C         7.4005821944        6.5771719993       12.2930219838
  C        10.4946592919        4.7552345641        5.5081045139
  H         9.7919164823        6.4512873895        6.4885500341
  C        10.9730525172        2.9349143497        4.3649114176
  H        13.2962750583        2.3544851483       11.1793151155
  H        12.4096525542        1.0585151996       10.9184553190
  C        11.5818859634        2.2048282316       12.5366299567
  C         7.5565128844        7.9967777835       12.5065527983
  C         6.8851427896        5.7538885259       13.3982154735
  C        10.9741886427        5.3731043234        4.2325755729
  C        11.2194445879        4.0312469768        3.5378201716
  S        11.2859446943        1.4560785081        3.5451627637
  H        11.0352325119        3.1567629649       12.5733376587
  H        10.8965947693        1.3855929203       12.6369463154
  C        12.5887808041        2.0526310800       13.6381617784
  N         7.8823422856        8.9508440821       11.5483454907
  C         7.3733727144        8.4881772464       13.7704601455
  C         6.6496083952        6.3182989945       14.6162517839
  H         6.5884633020        4.7788689300       13.2150815299
  C        12.2574801785        6.1648391388        4.5938188258
  C         9.9775549271        6.2485194478        3.5136700381
  C        11.7494260184        3.6363770254        2.2947705803
  C        11.6978266581        2.2709153218        2.1147188203
  H        13.4772637618        2.6266228412       13.3270871745
  H        12.9379032762        1.0554819273       13.7787450490
  C        12.0631569898        2.5679349909       14.9577447647
  S         8.0398096492       10.4375355353       12.2800374190
  N         7.5553394912        9.9189765556       13.7640886394
  C         6.9884130019        7.7273098676       14.8743940670
  H         6.1304166610        5.7062040980       15.3679736587
  H        12.0320751220        7.0956717096        5.1265708899
  H        12.5506461587        6.5271103875        3.6286017897
  C        13.3413316138        5.3020664204        5.2526494273
  H         9.8666158040        7.0861689444        4.1262290184
  H        10.5361195416        6.6621316271        2.7192809484
  C         8.6764238736        5.5248502389        3.1731611055
  H        11.9172290773        4.3505698454        1.4841048748
  C        12.0067548508        1.4919996798        0.8584960448
  H        11.6951227554        3.6275816076       14.7770564274
  H        11.2100289048        1.9115345855       15.2599565569
  C        13.0859641327        2.5131419608       16.0913140333
  C         6.8346474152        8.3698283355       16.1509054539
  H        13.1558072178        5.1914462209        6.3265653190
  H        13.4043179854        4.2475674369        4.9448453041
  C        14.7267122852        6.0213885720        5.0803778203
  H         8.3431021012        5.1573941044        4.1358166140
  H         8.9264697775        4.7138814297        2.4627016685
  C         7.6563272008        6.4658798673        2.5371316603
  C        11.9172088985        0.1275145039        0.6440186381
  C        12.2895393221        2.2223352628       -0.3843374151
  H        14.0626132371        2.8492448098       15.8650285481
  H        13.3909608989        1.4714199409       16.3022085780
  C        12.5666923675        2.8495351686       17.4771997585
  H         7.0000012474        9.3896671968       16.1596251187
  C         6.5595854359        7.8528801469       17.3633876654
  H        14.6049336764        7.0826792131        5.3819079922
  H        15.0703912619        6.0271337973        3.9984698417
  C        15.8612533011        5.1928759537        5.6556100762
  H         7.5616364384        7.2483621619        3.2813722289
  H         8.0193149120        6.9692459856        1.6333147835
  C         6.3169380370        5.7448429207        2.2839904208
  N        11.6544041238       -0.7264907174        1.6587770583
  C        12.2489716256       -0.5439525101       -0.4778641502
  C        12.5735392157        1.5902918404       -1.6078128133
  H        12.2783148051        3.2955758467       -0.3329194984
  H        12.2836063220        3.8732957999       17.4167065734
  H        13.2778258598        2.7154174137       18.2996496117
  H        11.6245042564        2.3111364196       17.4981280216
  S         6.3296713607        6.2211729465       17.7846948929
  C         6.5345575605        8.8486920371       18.5504550538
  H        15.4586592823        4.7223514205        6.5196401853
  H        16.1016802650        4.3262641587        5.0310828510
  C        17.0634075211        5.9758753474        5.9976324264
  H         6.2765613292        4.9039356784        2.9819775805
  H         6.4306107678        5.2416971704        1.3177506686
  C         5.1055167961        6.5833594353        2.5016960428
  S        11.5202232758       -2.2771505438        1.1869085429
  N        12.0209390021       -1.9636271466       -0.3405366628
  C        12.5771314903        0.1092802788       -1.6886468805
  H        12.7782934424        2.1655727155       -2.5447451279
  C         5.9545432271        6.7215447247       19.4154978698
  N         6.0388281936        8.0966424268       19.5530690703
  O         6.7484122586       10.0546180668       18.4384724732
  H        17.7187683324        5.8813908801        5.1130748230
  H        16.7110578031        6.9905235128        6.2539681664
  C        17.8138734278        5.3530580367        7.2741275781
  H         4.1286428170        6.0445617472        2.4341749204
  H         5.1156013731        6.9061784166        3.5081541828
  C         4.9456147462        7.7251593988        1.4942891502
  C        12.8573948250       -0.6957907954       -2.8299714603
  S         5.3757658166        5.8196218171       20.7855608307
  C         5.8559485525        8.6933899622       20.8753632222
  H        17.1899892291        5.4224556068        8.1401406043
  H        17.9811404956        4.3090597534        7.1667452210
  C        19.1313607808        5.9800599804        7.6569382582
  H         5.0408333909        7.4013407850        0.4910373045
  H         5.7586581650        8.4061888423        1.6194231552
  C         3.6754670800        8.5783579018        1.7698732968
  H        12.6369520527       -1.7295629573       -2.7120525052
  C        13.3757814033       -0.3622346332       -4.0840917440
  H         5.1011837826        8.2473749008       21.4620550377
  H         5.5326144997        9.7516192786       20.8248882577
  C         7.2140264036        8.6562992690       21.6541448430
  H        19.5571536324        5.5270116122        8.5216066370
  H        18.9001198768        6.9793818181        7.7749724677
  C        20.0273126073        5.9024546686        6.4555218696
  H         2.7774337885        7.9703713768        1.6232562307
  H         3.5243147129        8.9268001300        2.7889587558
  C         3.6000861229        9.7619212975        0.8340827711
  S        14.1584054626        1.0730487449       -4.6270134102
  C        13.3319324521       -1.4883920000       -5.0436260257
  H         7.2601657370        7.7360458207       22.2154234376
  H         7.2543990241        9.5608759683       22.2664756580
  H         8.1702500199        8.7395803687       21.1011497990
  H        19.8341786763        6.6564433295        5.7399206765
  H        21.1563628292        5.8871703905        6.7210919687
  H        19.9121040728        4.9282026307        5.9544410126
  H         2.6908358001       10.3593601206        0.9098269619
  H         4.4711003929       10.3631547109        1.0184752703
  H         3.7191970226        9.4841121255       -0.1668212476
  C        14.3776380485        0.1815186377       -6.1736923931
  N        13.9899406514       -1.1502070287       -6.1744642528
  O        12.9421564007       -2.5997327412       -4.7484223691
  S        14.9926939567        0.7919206877       -7.6626173297
  C        13.9044545006       -2.0826171812       -7.2778674336
  H        14.1397963416       -3.1023179644       -6.9722980163
  H        14.8278068592       -1.8814025736       -7.7584296157
  C        12.5842747625       -1.9751877393       -8.1332115684
  H        12.4115771778       -1.0132098996       -8.3761237087
  H        11.7464988256       -2.2992285281       -7.5786176523
  H        12.6459915737       -2.4077200020       -9.1138808161
  H        -4.0148551267       13.7639116413       16.4558972420
  C        -3.0289395358       13.5141021004       16.1859201359
  H        -3.0475301855       12.4393275645       16.2477192342
  C        -2.1492918661       14.0951893230       17.2743089178
  C        -2.5878185708       14.0277417448       14.7951671232
  C        -2.4979558800       13.5713765205       18.7134502655
  H        -1.1225661256       13.9586597940       17.0111331083
  H        -2.4145081525       15.1768477921       17.3050754732
  H        -2.3990876405       15.0849214837       14.7855015757
  H        -1.6158235764       13.6579235987       14.5207341131
  H        -3.1817401637       13.8324947894       13.8921419483
  C        -1.6202757359       14.2201278071       19.8359747867
  H        -2.4313722132       12.5014448244       18.6624993293
  H        -3.5637777210       13.7894392396       18.9160209700
  C        -2.2764188554       13.7755677441       21.2180806230
  H        -0.5891314391       13.9250907070       19.7363777375
  H        -1.5612852447       15.3158607614       19.7574237739
  C        -1.3228644311       13.0526025867       22.0815902359
  H        -3.1937777938       13.2289218467       21.0916017492
  H        -2.7224038804       14.6269921308       21.7536132150
  C        -0.2227701439       13.9605031053       22.6101189673
  H        -1.9358628055       12.5000539346       22.8612496611
  H        -0.9670261252       12.3037895303       21.4573863161
  C         0.9362661557       13.2333808190       23.3510962447
  H         0.1456482409       14.5006968071       21.7807258524
  H        -0.7563928316       14.6210066408       23.3569115791
  C         1.3319171560       11.8496253034       22.6824033185
  C         0.4266045344       12.4978180403       24.5275305474
  C         2.1566184874       14.1589776775       23.6767099260
  C         1.1453462550       10.7496062152       23.5053297764
  C         1.7888810991       11.4166752336       21.4432560030
  C         0.6359901616       11.1365839123       24.6809941413
  C         0.0791934322       13.1142353671       25.7298219856
  H         2.3601395954       14.7159043995       22.7633625602
  H         1.8964547269       14.8972712095       24.4785470710
  C         3.4737256790       13.4317795110       24.0511620107
  S         1.5294435673        9.2107338127       22.7079475099
  C         2.0305375746       10.0746854914       21.3409052258
  H         1.9958672790       12.2173969361       20.7313493912
  C         0.2998233555       10.5433048051       25.8530179286
  H         0.1336420954       14.2156633322       25.6210853778
  C        -0.2176437528       12.5181674824       26.8887655222
  H         3.8381632936       12.6098277440       23.4151287093
  H         3.3117483604       12.8787700071       24.9849648397
  C         4.6977345435       14.3499135856       24.1993919635
  C         2.4581513954        9.3791150755       20.0046939528
  C        -0.0395201452       11.1727110540       27.0060669777
  H         0.3866871929        9.4765783089       26.0046622940
  C        -0.6283132502       12.9049559523       28.0832290151
  H         5.4627381091       13.8203727866       24.7155079757
  H         4.4565708441       15.1874721738       24.7886999417
  C         5.2905515232       14.9000501608       22.9468557620
  C         2.3663669280        8.0388654557       19.6307549298
  C         2.9724338458       10.2428225232       18.8896514350
  C        -0.4295094598       10.4992649078       28.2553187912
  C        -0.7915352389       11.8393551092       28.9440241587
  S        -0.8699606760       14.4365819095       28.8904613966
  H         5.9797393124       15.6964013069       23.2726145327
  H         4.4549065162       15.3625631174       22.3863420054
  C         6.0814866335       13.8622714674       22.1173715427
  N         1.8400362045        7.1265147995       20.5126967696
  C         2.6654448116        7.4605240871       18.4067384531
  C         3.2765502911        9.6875397006       17.6192824328
  H         3.1150849256       11.2694759059       19.1276302860
  C         0.6996992289        9.6917747545       28.8379336409
  C        -1.7107623042        9.5919623773       28.1254065262
  C        -1.2833775226       12.2157312656       30.2166780631
  C        -1.3092862838       13.5744083770       30.3605988456
  H         7.0632697809       14.2796012585       21.8796242145
  H         6.3114249193       12.9367902546       22.6323509297
  C         5.3847153828       13.3520054481       20.8706779623
  S         2.0636391262        5.6162034183       19.9014844632
  N         2.5439050265        6.0863932083       18.4226967622
  C         3.0491977583        8.1743541971       17.3076690011
  H         3.4954415098       10.3211815999       16.7850016577
  H         1.0803978888        9.1144837045       28.0177621147
  H         0.2987003715        9.0749040192       29.7200261645
  C         1.9279273596       10.4489644468       29.3732566586
  H        -1.5723022145        8.8682196437       27.3613133130
  H        -1.8608312633        9.0529337550       29.0964422646
  C        -3.0395308608       10.2265062728       27.8040797856
  H        -1.5042905849       11.4869840706       30.9992672565
  C        -1.7148233867       14.2445151724       31.5838124079
  H         4.6605241352       14.0902194328       20.5724386235
  H         4.8965592828       12.3890674795       21.0745255926
  C         6.4366650402       13.1112046902       19.8201776858
  C         3.2563424554        7.6058594016       16.0325721350
  H         2.3165854097       11.2614345292       28.7232960926
  H         1.6514044488       11.0304751218       30.3014537292
  C         3.1009908945        9.5070706668       29.7524509688
  H        -2.7875796734       10.8191952100       26.9087534814
  H        -3.3627447602       10.8852183063       28.5561794973
  C        -4.1716110753        9.2888607696       27.3253837580
  C        -1.8776833171       15.6394120321       31.7383567678
  C        -1.8658406434       13.4673519192       32.8197748535
  H         7.1872222736       13.9156206562       19.9185248028
  H         6.9452747632       12.1108452179       19.9499577801
  C         5.7866704433       13.1332844826       18.4500337471
  H         3.2437561306        6.5377093236       16.0329935754
  C         3.4890568947        8.1160201040       14.8038831962
  H         3.4870190323        8.9411301436       28.8908392667
  H         2.6797581926        8.8160066145       30.3947083579
  C         4.2513102155       10.1795533884       30.4741018889
  H        -3.8179831315        8.9646097071       26.3572352828
  H        -4.3088669291        8.3403140324       27.9313479653
  C        -5.5895530478        9.8923762887       27.2270961059
  N        -1.7145701711       16.5914926678       30.7311659998
  C        -2.2377248214       16.2226089130       32.9429326530
  C        -2.3187515651       14.0495286825       34.0151123866
  H        -1.5334017263       12.4488373414       32.7537927072
  H         6.2412235669       12.3752396796       17.7849036508
  H         4.7989359961       12.8804542939       18.5260486295
  H         5.9849054968       14.0715359740       17.9119630521
  S         3.9123231473        9.7418720942       14.3159563239
  C         3.5287914045        7.0788163447       13.6825135368
  H         4.3431633227       11.2360128882       30.3351665046
  H         3.8886774226       10.1008070832       31.5049760536
  C         5.5923614217        9.4433863836       30.2384430513
  H        -5.5540602821       10.7151879433       27.9093366081
  H        -6.4293645205        9.4181425577       27.6895249972
  C        -5.8932597950       10.4023659219       25.8540696040
  S        -2.0152683444       18.0283658167       31.4091048862
  N        -2.4372391703       17.5652920558       32.9009981835
  C        -2.4901852941       15.5180594329       34.1362074191
  H        -2.4567712806       13.4227457489       34.9074387844
  C         3.8870379706        9.0699265729       12.6454738927
  N         3.8880214803        7.7277026451       12.5298282009
  O         3.3376844811        5.8421575996       13.7564882714
  H         6.4659124208        9.9745120524       30.6321811648
  H         5.7672121586        9.2391345169       29.1735311000
  C         5.5241925086        8.0961806799       30.9439848446
  H        -5.0817319088       10.9217311207       25.4828826812
  H        -5.9467910943        9.4355094657       25.3537091329
  C        -7.1417418501       11.2885715083       25.6892746862
  C        -2.8318624641       16.0589410351       35.3422342079
  S         4.4349434152        9.8425661806       11.2041081195
  C         3.8653334328        6.8941048781       11.3003739696
  H         5.9742902845        7.9942403951       31.9037836100
  H         4.5078114129        7.6522857607       31.1993380382
  C         6.3249204356        7.1285899875       30.0285431841
  H        -7.0881588036       11.8270710618       24.7820416986
  H        -7.1384121669       12.1075372470       26.3459958475
  C        -8.4207271719       10.5607204557       25.5752328278
  H        -2.4547469326       17.0937101501       35.4007317991
  C        -3.4705029357       15.6121658999       36.5224959215
  H         4.5707288071        7.3355145213       10.5361524560
  H         4.2449244128        5.8568367272       11.4307052291
  C         2.4533012978        6.7002906989       10.7008348719
  H         7.2942798543        7.5239330732       29.7562080629
  H         5.8697945053        6.9528973077       29.1016417932
  C         6.6131393712        5.9024987347       30.8571806556
  H        -9.0327279499       10.8475464740       24.7288319064
  H        -8.2476812022        9.5047430541       25.3322141945
  C        -9.1422486126       10.9156720265       26.8550413993
  S        -4.0644202811       14.0304323548       36.8694876728
  C        -3.7343418451       16.6367561774       37.5787945824
  H         1.8734788855        7.5958040377       10.5413305169
  H         2.5663843414        6.2377936296        9.7051790420
  H         1.7922343245        6.0170984364       11.2592159240
  H         7.1537961055        6.1683088222       31.8068537948
  H         7.2645081377        5.1532416800       30.3169756035
  H         5.6976657910        5.4642168372       31.1973787520
  H        -9.2712554212       12.0034197122       27.0877903708
  H        -8.5643590943       10.5289343728       27.7281897719
  H       -10.0611048933       10.3982769114       26.7566369786
  C        -4.4560911932       14.6795549951       38.5196990656
  N        -4.2187367135       16.0110623142       38.6389691231
  O        -3.3910639997       17.8321046040       37.4235749950
  S        -5.1300253939       13.6941467878       39.8205491494
  C        -4.3848435888       16.8183582838       39.8275882871
  H        -4.7392298956       17.8301144359       39.6680851189
  H        -5.1366949974       16.3925642495       40.4105066575
  C        -3.0286120045       16.9052168475       40.5140560355
  H        -2.4793823589       17.7094015178       40.1211212734
  H        -3.2557723688       17.1990785911       41.5780178633
  H        -2.5109851326       15.9554101934       40.4654232673
