352
i=
  H         2.5155422498        4.3251953755       12.3604031723
  C         2.8012281096        3.2846542436       12.5083221823
  H         2.1095122097        2.6557419086       11.9576536781
  C         4.2451048580        3.0505870170       12.0014688252
  C         2.6970834274        2.9689210053       14.0435929313
  C         4.3965681016        2.9709323514       10.4962818766
  H         4.7190884655        2.2899794243       12.5527824503
  H         4.6959411860        3.9908245201       12.2203390545
  H         2.9865488559        1.9473701608       14.2769605355
  H         1.6235976706        3.0026277182       14.2764270730
  H         3.2061426788        3.6097212985       14.8140684468
  C         4.9618421783        1.6561457743        9.9867096398
  H         3.3704850151        3.0972620242       10.0361243542
  H         5.0907452146        3.7558460305       10.1799486189
  C         5.5056865026        1.7686544376        8.5773952080
  H         4.1465236755        0.8945860704        9.9723602315
  H         5.7407945727        1.3017916859       10.7779741668
  C         6.8198832370        2.5639899815        8.3347278961
  H         4.6680566236        2.2472012090        8.0388164686
  H         5.4839613582        0.7789548298        8.0956243850
  C         7.9466320276        1.8247861185        9.0244790699
  H         6.8712323327        2.7046788473        7.3047124236
  H         6.7218259911        3.5698367029        8.7651052512
  C         9.1433979516        2.6851443037        9.2174708999
  H         8.2680244150        0.9618120936        8.3860059753
  H         7.6380274708        1.4671770086       10.0261214193
  C         8.9353763146        3.9558278689        9.9927010981
  C         9.6216941954        3.3106192213        7.9642090697
  C        10.2067334760        1.8178750066        9.9203996408
  C         9.2845231279        5.0348791239        9.1906495454
  C         8.2769082027        4.4266818303       11.1280347096
  C         9.7328451995        4.6859467840        7.9086214666
  C        10.1237128290        2.6912493351        6.8391650128
  H         9.7951395050        1.3124887295       10.7280193744
  H        10.5465545783        1.1297851363        9.1864634111
  C        11.4558936955        2.5614157225       10.3711863440
  S         8.9383820322        6.5438606908        9.8768371172
  C         8.3035218854        5.7999213511       11.2907750756
  H         7.8428136011        3.6596085146       11.8552683254
  C        10.1364180131        5.3564641398        6.7794830887
  H         9.9719740225        1.6768756741        6.7495220257
  C        10.5654963908        3.3916243553        5.7190446685
  H        11.0758767870        3.3423715108       11.0395170409
  H        11.7587615713        3.1328919745        9.5857511666
  C        12.5277750964        1.7782820460       11.1400299428
  C         7.9042438409        6.4800700469       12.6181852699
  C        10.5231220069        4.7083948510        5.5548830990
  H        10.2185574765        6.4280332200        6.7516094211
  C        10.9296310780        2.9034037251        4.4913804218
  H        13.4892539008        2.2593465367       11.0305894525
  H        12.7214069718        0.8554235855       10.6190735147
  C        12.0452369517        1.4564716743       12.6127955885
  C         7.8706386722        7.8738357631       12.8306096935
  C         7.3916087859        5.6562804581       13.7700144045
  C        11.0580594043        5.3374101031        4.2999746012
  C        11.1659692670        3.9915022996        3.6406798590
  S        11.1067055710        1.3631710850        3.7543832367
  H        11.0157646604        1.7263590632       12.6028258033
  H        12.1657784183        0.3680149597       12.8496582454
  C        12.7057875962        2.3778228011       13.6748866268
  N         8.0317013495        8.8672365334       11.8882450207
  C         7.5730403719        8.4102037309       14.0446673971
  C         7.0038081182        6.2375720088       14.9707627370
  H         7.4185024077        4.5721503815       13.6486008138
  C        12.4116997966        6.0899164000        4.7184717423
  C         9.9638320035        6.0907073927        3.5461742678
  C        11.6072842421        3.5152916760        2.4204973271
  C        11.6455195637        2.1595093171        2.3195393304
  H        12.0213514873        3.1480294856       13.8872878067
  H        13.5811441175        2.8127374266       13.1359161771
  C        12.9456934891        1.6167139588       14.9038574483
  S         7.9766856426       10.3436864649       12.5889383877
  N         7.7487570676        9.8264600636       14.0995557359
  C         7.2666064649        7.6646541404       15.1934221739
  H         6.7303308976        5.5413520304       15.7391082010
  H        12.1933979318        6.8296646967        5.5396698349
  H        12.7688555355        6.6788139191        3.9085770678
  C        13.5504530997        5.1639403151        5.1502055499
  H         9.7182716606        6.8324855999        4.2066065737
  H        10.3277218373        6.5650746315        2.6260651887
  C         8.6496086297        5.4419602918        3.1877817374
  H        11.8112875620        4.2786741964        1.6818187425
  C        11.9881426172        1.4490231251        1.0220361709
  H        12.2170960713        0.8402848546       14.9706111813
  H        13.7856208704        0.9110297279       14.7025953035
  C        13.0522972878        2.4927406394       16.1022235520
  C         7.1055965937        8.3235785628       16.4542050598
  H        13.1707424433        4.5404515466        5.9580828550
  H        13.8439263410        4.5475485609        4.3403262502
  C        14.8265757964        5.8835645661        5.6398669292
  H         8.1373143391        5.1966912331        4.0976912675
  H         8.8671075830        4.6199772004        2.5042207723
  C         7.7053703891        6.4132018584        2.3801332913
  C        11.9922724954        0.0778390025        0.8193825650
  C        12.3236494329        2.3111132382       -0.1335458424
  H        12.4455641122        3.3399651145       16.0655474620
  H        14.0826938191        2.9038512075       16.1242776900
  C        12.8641250303        1.7234950787       17.4101719997
  H         7.0667414523        9.3973287520       16.4837612132
  C         6.8124266490        7.8764200906       17.6841987350
  H        14.5895202511        6.6348565131        6.4102879403
  H        15.2377562203        6.5228180322        4.8336430567
  C        15.8935667935        4.9776256583        6.1076726860
  H         7.8102652038        7.3593724397        2.9440184859
  H         8.0552967727        6.5737825523        1.3744469880
  C         6.2309812568        5.8530197532        2.1106754477
  N        11.6248378898       -0.9257923726        1.7110151713
  C        12.4217589754       -0.4625844216       -0.3469841456
  C        12.6202180702        1.7320204899       -1.3423708165
  H        12.3088891416        3.4345972329       -0.1130592506
  H        13.3334027593        2.1755678845       18.2343425729
  H        13.2940063156        0.7517579357       17.3167009988
  H        11.8645975190        1.5375083538       17.7185140046
  S         6.6396783935        6.2335060071       18.1548329286
  C         6.6818889740        8.9080755179       18.8089174438
  H        15.5991324694        4.2611674536        6.9171499544
  H        16.3051535438        4.4553446779        5.2126253608
  C        16.9839138403        5.7896629879        6.7311433215
  H         6.0964763590        5.1216748160        2.9980507766
  H         6.0595538227        5.2504268745        1.2269794024
  C         5.1641281190        6.9672556370        2.1907403335
  S        12.0043445705       -2.3445185849        1.1123195693
  N        12.5175339827       -1.8513742410       -0.3212437100
  C        12.6881752758        0.2604903802       -1.5069561596
  H        12.8449051001        2.3838483046       -2.1818733617
  C         6.0346468413        6.8804459495       19.7218607915
  N         6.2046526880        8.2339267689       19.8934612764
  O         6.7677848852       10.0995248300       18.6411002273
  H        17.3210870881        6.5177113995        6.0081565583
  H        16.5669704209        6.4021549707        7.4954531482
  C        18.1085494603        4.9661054593        7.3124834210
  H         4.1336760808        6.7015322816        1.8355637958
  H         5.0528437287        7.2533370582        3.2102012226
  C         5.5424605761        8.1644246600        1.2798801365
  C        13.0074926551       -0.5291110043       -2.7139842477
  S         5.9214484862        6.0299337061       21.2575262125
  C         6.1586808918        8.9190955608       21.1983868434
  H        17.9058347166        4.5277614064        8.3030598737
  H        18.1967254329        4.0874620904        6.5931059183
  C        19.3451378104        5.8095577773        7.3839175099
  H         5.9386144480        7.8735144667        0.3451466151
  H         6.3696495424        8.7551734397        1.7161711740
  C         4.3340063441        9.0269647975        0.8896959000
  H        12.7142185862       -1.5782500136       -2.7204776872
  C        13.5649293319       -0.1204953116       -3.9061923619
  H         5.4146670870        8.4100972625       21.7963800711
  H         5.7032457876        9.9765091494       21.0236102005
  C         7.5414935888        9.0865363289       21.8584481478
  H        19.9368177269        5.4328843863        8.2128939502
  H        18.9690582052        6.8799337682        7.5907702107
  C        20.1939560388        5.7757841935        6.1362925779
  H         4.6683473965        9.9441992661        0.3507082097
  H         3.5734109718        8.5268608999        0.2295030576
  C         3.5658394037        9.4966908687        2.1112707714
  S        14.0371224993        1.4730765045       -4.3174241182
  C        13.7466979663       -1.1407671200       -4.9717033258
  H         8.2873007519        9.1658188238       21.0589220845
  H         7.7334836630        8.3807818274       22.6217106501
  H         7.4203396463       10.0823333609       22.2783089040
  H        20.2403949516        6.6577570557        5.5722405820
  H        21.2069245353        5.5240208800        6.3996657908
  H        19.8543943453        4.9698854459        5.4219320237
  H         3.3151721004       10.5068766287        2.1008884536
  H         2.7525113376        8.7121216487        2.2401819556
  H         4.2462338926        9.5192779134        2.9451469388
  C        14.5650981645        0.7177903067       -5.8729899150
  N        14.4000621146       -0.6321179587       -5.9723366111
  O        13.1408312918       -2.1955800984       -4.9093260810
  S        15.2036347558        1.6070600229       -7.3354126156
  C        14.5893505349       -1.3657165101       -7.2290884392
  H        14.6000868193       -2.4852939408       -6.9178461318
  H        15.5944739925       -1.1507449050       -7.6298989116
  C        13.3866633259       -1.2922821799       -8.1701267977
  H        12.4801929492       -1.3981139735       -7.6532706452
  H        13.3194018039       -2.0640721823       -8.8634781540
  H        13.4707729829       -0.3082650567       -8.7083189826
  H        -3.0546211623       14.7408309252       16.5979390588
  C        -2.7653067232       13.7070752041       16.4441468873
  H        -3.5968853287       13.0212842256       16.4618033587
  C        -1.8163094311       13.5997930209       17.6010730475
  C        -2.1052928534       13.5876696661       15.0987506197
  C        -2.4721386983       13.7084824074       18.9074999750
  H        -1.3781896362       12.6329559794       17.5035298839
  H        -0.8966644360       14.2654055613       17.4643429373
  H        -2.2690205615       12.5707231034       14.7463675906
  H        -2.4320689813       14.3845805513       14.4280225628
  H        -1.0821393686       13.7974664446       15.2359685652
  C        -1.4247021706       13.6664977877       20.0106013097
  H        -3.2273349119       12.9750432348       18.9969762363
  H        -2.8496499968       14.7344612933       18.9325218542
  C        -2.1995682574       13.4189731650       21.2955912973
  H        -0.7726085276       12.7662386101       19.9384475633
  H        -0.8309866108       14.5235002604       20.0667477463
  C        -1.3103823599       12.7557777314       22.2727211654
  H        -3.0568128336       12.7908186402       21.0922451700
  H        -2.5544486071       14.3837008550       21.6631825440
  C        -0.1082258884       13.6486259331       22.7752594812
  H        -1.8232404534       12.6204262947       23.1772789459
  H        -0.9049703996       11.8455033570       21.9814726833
  C         1.1379259196       12.9959734131       23.4837623919
  H         0.2856426404       14.3137513293       22.0515667075
  H        -0.5578326182       14.4115780595       23.4014182156
  C         1.5302076298       11.7339521350       22.7804453142
  C         0.8015875940       12.2261597305       24.7586822757
  C         2.4062170012       13.9308252433       23.6357761180
  C         1.5324628690       10.6629770337       23.6541064241
  C         1.8987427702       11.3596820070       21.4775350950
  C         1.0146639039       10.9387251190       24.8914336647
  C         0.2326443167       12.8400065104       25.9063858492
  H         2.6929257640       14.4280071407       22.7038322840
  H         2.0585898255       14.7718120647       24.2156884811
  C         3.6291871799       13.0795750838       24.1632054179
  S         2.1765141964        9.2096850785       22.9742319860
  C         2.2382104273       10.0503603969       21.4246950892
  H         1.7865839097       12.0785941982       20.7110425212
  C         0.7639946903       10.2490250875       26.0489547737
  H        -0.0133275051       13.8859456267       25.8840167377
  C         0.0770123338       12.1640220294       27.1119049192
  H         3.7571987009       12.2980945845       23.4867838292
  H         3.4933672159       12.6035586244       25.1875328877
  C         5.0127585678       13.9039314030       24.2194992034
  C         2.7616110603        9.4452663774       20.1628976833
  C         0.3131002224       10.8408274853       27.2393656183
  H         1.0455229510        9.2148501030       26.0772897518
  C        -0.3458650486       12.5161219477       28.3488918440
  H         5.7811811868       13.2018004641       24.5411253593
  H         5.0555555732       14.5962087414       25.0156164069
  C         5.5034655672       14.4405458658       22.9099555115
  C         2.7395385313        8.0746788750       19.8545587254
  C         3.1152514371       10.2908728378       19.0057765438
  C        -0.1166992387       10.0732952930       28.5029706446
  C        -0.4903443608       11.4663768946       29.2271205156
  S        -0.8185539542       14.0073921227       29.0750885689
  H         6.2364006617       15.1842414071       23.1088505311
  H         4.8143563163       15.0826469215       22.4594468780
  C         6.1003303787       13.3474022400       22.0871129360
  N         2.2890773832        7.1296333630       20.7040008144
  C         3.0104078454        7.5246896426       18.5848500561
  C         3.4676198300        9.7718318352       17.7669142030
  H         3.2257808455       11.3816968334       19.1513322556
  C         1.0703064967        9.3366450737       29.2165728558
  C        -1.3984391320        9.2712283916       28.3021897402
  C        -0.9549731524       11.8318658838       30.4654229048
  C        -1.0650492662       13.1969711462       30.5514096744
  H         7.1891223398       13.3609661479       22.2905364322
  H         5.7488285407       12.3913229903       22.4092028145
  C         5.8271551954       13.4537060514       20.5647643252
  S         2.2465846181        5.6527950061       19.9615236284
  N         2.8280239756        6.1409724159       18.5233365263
  C         3.4199597501        8.3318749592       17.4651849904
  H         3.7515220772       10.4557646133       17.0215991598
  H         1.4056682979        8.7889421816       28.3703030223
  H         0.6355067506        8.5684474577       29.9153194863
  C         2.2184256141       10.2393565855       29.6557196263
  H        -1.1989544136        8.4056945184       27.6011357305
  H        -1.5850484820        8.7975071086       29.2456862342
  C        -2.6496041962       10.1012862289       27.9004532458
  H        -1.0151612302       10.9887003875       31.1989555371
  C        -1.3456986745       14.0026219385       31.7835590523
  H         5.2914059248       14.3787813212       20.3353163950
  H         5.3098985838       12.5580450049       20.3634816774
  C         7.1103044182       13.3820421482       19.6381463479
  C         3.8313821943        7.6367388594       16.2708277543
  H         2.5728046493       11.0164031668       28.9679041101
  H         2.0011842763       10.7990542683       30.5207198736
  C         3.4293310097        9.2455400355       29.9205810874
  H        -2.3597828556       10.6081537354       26.9522247175
  H        -2.8795229361       10.9922685148       28.6070335149
  C        -3.9222954876        9.2595510086       27.6496353670
  C        -1.3653847152       15.3653849222       31.8570048193
  C        -1.5001377231       13.2626325690       33.0286993183
  H         7.8098294558       14.1098194809       19.8520650999
  H         7.5172090172       12.4420569920       19.8730694902
  C         6.6365745433       13.3564753307       18.1868904518
  H         3.8690614847        6.5466544670       16.3652703806
  C         3.9835811958        8.0607910794       14.9972610513
  H         3.6203042312        8.6062066713       29.0105753607
  H         3.1137732230        8.4565967537       30.6218015003
  C         4.7155111463        9.9737310441       30.3986529024
  H        -3.7560113453        8.4781639805       26.9236752420
  H        -4.2347103414        8.8738160247       28.6135655534
  C        -5.1455883767       10.1520905339       27.2577953776
  N        -1.1143631028       16.2733119502       30.8004377152
  C        -1.6263333944       16.0873700952       33.0222473217
  C        -1.7467625940       14.0116082405       34.2437904397
  H        -1.5574709100       12.1887594144       33.0627787134
  H         7.3162815480       12.9841363957       17.4326763613
  H         5.8573246357       12.6018120316       18.0848561703
  H         6.2548970373       14.3527919000       17.8258223587
  S         4.1918226978        9.6933000909       14.4868748199
  C         4.0255940885        7.1368278305       13.7934074791
  H         4.9099587206       10.8400608384       29.8028255537
  H         4.6288980532       10.3503545617       31.3937551309
  C         5.8832347121        9.0169455229       30.4128658805
  H        -5.1074313975       11.0526613762       27.9326381285
  H        -6.0738877796        9.6883000473       27.6140563108
  C        -5.2464482770       10.4747719897       25.7653025409
  S        -1.3422613118       17.7912957514       31.3035244471
  N        -1.7213912309       17.4902234818       32.8322267216
  C        -1.9026443978       15.4979564312       34.2531325656
  H        -1.9417614072       13.5456250783       35.1654641894
  C         4.2091653731        9.1876721323       12.8245837416
  N         4.2630218323        7.8243011938       12.6350556700
  O         3.9184332654        5.9596419613       13.8248769357
  H         6.7718816305        9.6085706885       30.5887645604
  H         6.0689913865        8.4959061942       29.5433467045
  C         5.8056498585        8.0615767950       31.6527261643
  H        -4.2671501405       10.8779364264       25.5502686652
  H        -5.3665893178        9.4459932995       25.3074600074
  C        -6.3366488573       11.4420705092       25.3093855918
  C        -2.2800131955       16.3354942712       35.4123121280
  S         4.8127067298       10.1225005264       11.4481928285
  C         4.3621720853        7.1283532968       11.3691139598
  H         6.6273501517        8.3309468328       32.3226905991
  H         4.8368043259        8.2277032516       32.1600571159
  C         6.0802131439        6.5898182487       31.2460958200
  H        -5.8589601314       12.1253234416       24.5698302302
  H        -6.6449417839       12.0224590078       26.1542839036
  C        -7.5188347367       10.7205893910       24.5687736425
  H        -2.2751617299       17.3542960550       35.1261399824
  C        -2.6150577426       16.0581062842       36.6910021893
  H         5.0097710556        7.5391316848       10.6539875819
  H         4.9084572332        6.2284906660       11.4152351838
  C         2.9935474761        6.9592168033       10.7039524131
  H         7.1673855212        6.5988521410       30.9724555371
  H         5.5717235486        6.3975566944       30.2611794201
  C         5.9282374154        5.5650175591       32.3248258480
  H        -7.9229058248       11.3103556663       23.6940240699
  H        -7.2522688599        9.7940912708       24.1529452501
  C        -8.6481113127       10.5234993324       25.6137475484
  S        -2.9436344331       14.4714965226       37.3648113606
  C        -2.7817403965       17.1867503718       37.5568337653
  H         2.9327745289        7.4341924024        9.7229004152
  H         2.6519524737        5.9181192831       10.5222145238
  H         2.2894680798        7.4157018407       11.3473931116
  H         6.8239633906        5.0665449815       32.5438851035
  H         5.0709923939        4.8476816838       32.1429856838
  H         5.6302888968        5.9613656736       33.2823348038
  H        -9.4784405878       10.0482079288       25.0997355299
  H        -8.9377831978       11.4846640425       26.0845274249
  H        -8.2462445662        9.9877350559       26.4599818182
  C        -3.1609728837       15.4011322040       38.8690705896
  N        -3.2937767074       16.7671969182       38.7668726155
  O        -2.7558622797       18.3722236830       37.2224117824
  S        -3.5223427837       14.8222134715       40.4618647653
  C        -3.5025500795       17.6881206172       39.8341581148
  H        -3.9880912087       18.6095895234       39.4602396613
  H        -4.3382826710       17.2519821269       40.4390667348
  C        -2.2091611555       18.0575348281       40.5475654960
  H        -1.9884661186       17.4291285142       41.3700554749
  H        -1.3891443176       18.0955665429       39.9660544553
  H        -2.2885182077       18.9984692796       40.9346606590
