352
i=
  H         2.8341202507        3.3107022108       13.0087429494
  C         3.4511132651        2.3855868273       13.2252121487
  H         2.7804329846        1.6258756787       12.8061349386
  C         4.7881183002        2.3515929843       12.5421390657
  C         3.5363168899        2.2319779428       14.6713098503
  C         4.7620613125        2.3427311055       11.0248639120
  H         5.3603264737        1.4925391902       12.8315805234
  H         5.3506188708        3.2247324055       12.9334276857
  H         4.2760380021        2.9039248241       15.1840514295
  H         4.0635187250        1.2532267342       14.7435567350
  H         2.5007498587        2.3130099618       15.1038818745
  C         5.3482509556        1.0767158526       10.5131405813
  H         3.7898404166        2.5716017330       10.5387177675
  H         5.3192294332        3.2376175777       10.7048965498
  C         5.7082867540        1.3427951865        8.9905547481
  H         4.6370883611        0.2502243667       10.7125471515
  H         6.2562243503        0.7622125190       11.0338638694
  C         7.0088131460        2.1185985075        8.6939736861
  H         4.7625861728        1.7710149999        8.5201334488
  H         5.8843425138        0.3963490524        8.4356761928
  C         8.3521504323        1.4231473290        9.1287948377
  H         7.1551496433        2.1418077622        7.6377541243
  H         6.8941416004        3.0795598880        9.1410962817
  C         9.5626475734        2.3176942539        9.3536454836
  H         8.5986376192        0.6535479603        8.4130639090
  H         8.2908136812        1.0038303278       10.1360512544
  C         9.1922445592        3.7273106907        9.9903806898
  C         9.8931079071        3.0002780239        8.0900330965
  C        10.7257155502        1.5843210219       10.0770774496
  C         9.3732573182        4.7932020273        9.1195231576
  C         8.7461120113        4.1541727694       11.2751663759
  C         9.7535922309        4.3307811306        7.8918764096
  C        10.3779338954        2.3019285872        6.9858177889
  H        10.3885047471        1.2260376103       11.0674800375
  H        11.0284784224        0.6622494219        9.5540556073
  C        12.0293613278        2.5256313358       10.3480861087
  S         8.9193476718        6.3085426769        9.8797737375
  C         8.4991572381        5.4890129538       11.3173763962
  H         8.6680837492        3.4477152148       12.1000982391
  C        10.2502498703        4.8775853594        6.7276980155
  H        10.4735988736        1.1949540270        7.1205708167
  C        10.7198365281        2.8368123530        5.7729268366
  H        11.7130162651        3.4652979587       10.7191361953
  H        12.5565688809        2.6715742060        9.5096654596
  C        12.9366537435        1.8297260559       11.3522356280
  C         8.0298153789        6.2785456439       12.5550508431
  C        10.7280724969        4.1676979376        5.6309685448
  H        10.2324886930        5.9594607274        6.6459513246
  C        11.1102985973        2.3817722830        4.5179835296
  H        13.8515360175        2.4584446570       11.3738380929
  H        13.2000464927        0.7829994760       11.1862428198
  C        12.2592523372        1.9340403664       12.7485426612
  C         7.9689298658        7.6718255829       12.7038877385
  C         7.6233372635        5.4584086049       13.7531048301
  C        11.1452957318        4.8449116479        4.3919945562
  C        11.3664122599        3.4774004986        3.7401626022
  S        11.4056897485        0.8935571114        3.6310755396
  H        11.6608986931        2.8123247076       12.8972114085
  H        11.5641260199        1.1032565632       12.9082508034
  C        13.3049826350        2.0557102602       13.8454968732
  N         8.2751936178        8.6802098561       11.7811095214
  C         7.6793797324        8.2419947176       13.9411332192
  C         7.3552785349        6.0140429139       14.9775204061
  H         7.4688622885        4.3275474998       13.7179032757
  C        12.4375099854        5.6415529964        4.5950902766
  C        10.0779486728        5.6737616149        3.6916975877
  C        11.7540182065        3.0952284525        2.4064814700
  C        11.8487271206        1.7598108245        2.2590096938
  H        14.1216731970        2.6426934098       13.5961811520
  H        13.6845035783        1.0274734298       14.0446825614
  C        12.6662373110        2.5122193416       15.1904780114
  S         8.2916991376       10.1014864719       12.5667125922
  N         7.9344853421        9.5917564532       13.9990069482
  C         7.3747722548        7.5146372834       15.1087729968
  H         6.9619157512        5.2868411256       15.6759285812
  H        12.1411383958        6.5188477165        5.2311108305
  H        12.8343497277        6.0095590282        3.6840151585
  C        13.4680509170        4.8760895908        5.3652400406
  H         9.7452186171        6.4553371451        4.3515011314
  H        10.4225203103        6.1348411870        2.7720271108
  C         8.7469875635        4.9541596335        3.2581037410
  H        11.9816679216        3.9011988671        1.7371287754
  C        12.2046428654        1.1053427446        0.9603132474
  H        12.5742490183        3.5227672413       15.3345467392
  H        11.7291515459        2.0192142138       15.2672497842
  C        13.4815258284        2.1340346935       16.3567348642
  C         7.2545912421        8.2507781168       16.3407706527
  H        13.1962558278        4.6343008680        6.3719559245
  H        13.6981352887        3.9319956127        4.8447017992
  C        14.8697615233        5.5830064716        5.3980724553
  H         8.4058274246        4.6919251399        4.2363283422
  H         8.8749875083        4.0633132332        2.6795690859
  C         7.8339591674        5.9122601662        2.4438357602
  C        12.1329108821       -0.3085569545        0.7553343840
  C        12.4541264938        1.9838032805       -0.2401806116
  H        14.2706422398        2.8447333918       16.4584938713
  H        13.8328070232        1.0709834801       16.2086323271
  C        12.6816889412        2.1872203254       17.6217680922
  H         7.4076361027        9.2815234746       16.2688871256
  C         6.8900888166        7.7864177370       17.5905915455
  H        14.7604502691        6.6097294935        5.6465568146
  H        15.3453729862        5.6842962988        4.4427186120
  C        15.8489665248        4.8091296119        6.3236522972
  H         7.8159248409        6.8928924703        2.9374697429
  H         8.3878404924        6.0563772287        1.5015704706
  C         6.4761430716        5.3611240312        1.9751759550
  N        11.9113380773       -1.2638499051        1.7918967824
  C        12.3982682608       -0.8436122696       -0.4957812938
  C        12.6907616682        1.3997826661       -1.4743035530
  H        12.5681621044        3.0559452489       -0.1606953358
  H        12.9591092971        1.4816389661       18.3863836578
  H        11.5780077539        2.1280669967       17.4128459499
  H        12.8021310606        3.1332914265       18.1594862679
  S         6.4107458237        6.2034607093       18.1201441511
  C         6.7624842357        8.8002766726       18.6728385114
  H        15.3071069017        4.1792576992        7.0659436066
  H        16.3135725800        4.0295163034        5.6623859506
  C        16.7635998761        5.7753620457        7.0352233532
  H         6.2208580335        4.4045478576        2.5733244875
  H         6.4938863438        5.0251288959        0.9391379950
  C         5.2408469993        6.2618693920        2.1830401922
  S        12.1440707515       -2.6833385641        1.0045068615
  N        12.2953280810       -2.2221385619       -0.5186586838
  C        12.6655468234       -0.0675629500       -1.6418756496
  H        12.8439763449        2.1308465715       -2.2549788782
  C         6.2505226227        6.8355656255       19.6831946713
  N         6.3583940493        8.1679416507       19.8019779576
  O         6.8664678919       10.0225717756       18.5443070154
  H        17.1053491466        6.5611374838        6.3630150099
  H        16.2206423567        6.2131261065        7.8822563407
  C        17.9021059495        5.0081466355        7.6367552160
  H         4.3602363149        5.6567947333        2.4320534061
  H         5.4155338856        6.8774892661        3.0282592146
  C         4.9234610270        7.1851564028        0.9421357438
  C        12.9180761808       -0.7363201515       -2.8557488369
  S         5.8212452978        5.9855190199       21.1049169656
  C         6.3558027741        8.9410328956       21.0548512298
  H        17.7740467001        4.9888793709        8.7117573579
  H        18.0445573914        3.9854620937        7.1980991849
  C        19.2290983248        5.7097600978        7.5987502974
  H         4.5024411613        6.5809216553        0.1648179983
  H         5.7641676656        7.6694782912        0.4544291660
  C         3.8675052627        8.2094482930        1.3352531170
  H        12.5370695589       -1.7581522965       -3.0079424438
  C        13.4070539550       -0.3445383549       -4.0928154403
  H         5.6205670860        8.5552092152       21.6654557984
  H         5.9660129953        9.9500763647       20.9525036115
  C         7.6850735354        9.0420761565       21.5937923445
  H        19.8405669384        5.1449884898        8.3258352502
  H        19.1455813325        6.6610210769        8.0085142602
  C        20.0369021377        5.7468102084        6.2460050171
  H         3.4284858299        8.6715704239        0.4237942788
  H         3.1329824073        7.6919498796        1.9508934425
  C         4.2955888148        9.4190261278        2.2464674418
  S        13.9204396826        1.1960982363       -4.5038913468
  C        13.5765422052       -1.3723664065       -5.1971074517
  H         7.6857918706        9.8683472585       22.2938183403
  H         8.3928980737        9.3149653074       20.8523434490
  H         8.0321426632        8.0784909086       22.0816393783
  H        19.9557308855        4.9060063242        5.6044148753
  H        19.6934129255        6.6396224117        5.7686809271
  H        21.1313090781        5.9394942597        6.4327559039
  H         5.2323185397        9.8207772376        1.9270561224
  H         3.3958006124       10.0669903848        2.4573059133
  H         4.4002474797        8.9805244625        3.2592421936
  C        14.4357570611        0.5711418954       -6.0441246748
  N        14.0831559335       -0.7021109725       -6.2317255306
  O        13.0669749591       -2.5127747830       -5.1641256690
  S        15.2842482376        1.4457883480       -7.3269690957
  C        14.0747708188       -1.3223883186       -7.6034117127
  H        14.2581244646       -2.4227640772       -7.4497190127
  H        15.0082027620       -1.1571119815       -8.1296138041
  C        12.7539245549       -1.0883557149       -8.3379603362
  H        12.9837658137       -0.8008287401       -9.3771670266
  H        12.2250464115       -0.1938952937       -8.0750116509
  H        11.9540784314       -1.8503687546       -8.2935265007
  H        -3.2037500366       14.4551677902       15.9284923442
  C        -2.8202073671       13.4727737363       15.9685938719
  H        -3.5419441576       12.7114027655       16.1551881132
  C        -1.8059261113       13.1969313375       17.0665217483
  C        -2.0647531593       13.2148097825       14.7267603013
  C        -2.5206623261       13.4315114367       18.3969884572
  H        -1.4640216143       12.2018254902       17.0243395388
  H        -0.8916914437       13.8190371617       17.0047868892
  H        -1.2151062251       13.8328796201       14.6157380630
  H        -1.7751766899       12.1594191476       14.6793336406
  H        -2.7861968722       13.3895120231       13.9813697832
  C        -1.4235618013       13.1755679444       19.4818864369
  H        -3.2494783169       12.6242531512       18.4637050463
  H        -3.1503203423       14.2764596425       18.4549466249
  C        -2.1082441156       12.9669591431       20.8608737460
  H        -0.8961815958       12.2096792796       19.1929540190
  H        -0.6689178358       13.8704527119       19.4749524572
  C        -1.1701081586       12.3656204383       21.9445278256
  H        -2.9079385933       12.2146860034       20.8058493526
  H        -2.5106919846       13.9966436915       21.1936476342
  C        -0.1606076556       13.4102964848       22.3773385690
  H        -1.7603789026       11.9515215155       22.7411808641
  H        -0.6789450647       11.4861473907       21.5112578251
  C         1.1531232199       12.8955473053       23.0697848387
  H         0.2348505582       13.9245054217       21.4854802603
  H        -0.5718407051       14.1721032030       23.0343123936
  C         1.6283346139       11.5438092464       22.3937241769
  C         0.8133329796       12.2084492385       24.3198739226
  C         2.1818321134       14.0385740174       23.3133048539
  C         1.3485859293       10.4841557265       23.1931317594
  C         2.1088510771       11.1464845192       21.1533948838
  C         0.8491131073       10.8612814744       24.4382476845
  C         0.4053853820       12.8052345330       25.5427005932
  H         2.3738699742       14.3718435576       22.2858088325
  H         1.5986388081       14.9004283874       23.7793144302
  C         3.5489321452       13.5641962535       23.9514163579
  S         1.8672638757        8.9732815542       22.5580601184
  C         2.4084897548        9.8129616561       21.0822522466
  H         2.2869747670       11.9250641001       20.4095691725
  C         0.5033226440       10.2033999731       25.5731943913
  H         0.2119710465       13.8665076933       25.4364173392
  C         0.1207068495       12.1448233539       26.7136773977
  H         4.1731422749       12.9364941483       23.2574303768
  H         3.3358171549       13.1634986498       24.9168112397
  C         4.4855170693       14.7610438334       24.3416207809
  C         3.0917752153        9.1937134017       19.9392042784
  C         0.1701797971       10.7932798398       26.8036583746
  H         0.6088903596        9.1334386004       25.5697326854
  C        -0.3443127509       12.5704051981       27.9116217371
  H         5.3139382503       14.4653324515       24.9411032165
  H         4.0088944336       15.5764225543       24.8615452133
  C         5.1172283951       15.3424376469       23.0440360147
  C         2.9093256781        7.8148824632       19.6356893347
  C         3.4603044309        9.9701809541       18.7464412552
  C        -0.0986403078       10.1100963873       28.0944496812
  C        -0.4953126424       11.4668655923       28.7531439186
  S        -0.8993271655       14.0463481463       28.5445808545
  H         5.3060241092       16.4014756798       23.1694186241
  H         4.2961373444       15.4170460823       22.3793022443
  C         6.2353767188       14.4506652986       22.5118097505
  N         2.5406199944        6.8983088541       20.5067933759
  C         3.1048397806        7.3014180467       18.3574944820
  C         3.6594973091        9.4626985533       17.4670451115
  H         3.6610046433       11.0497980542       18.9314606700
  C         1.1299977859        9.5123698005       28.8616890965
  C        -1.3111631352        9.0771033204       28.1552543945
  C        -0.9237303974       11.8975534853       29.9926121886
  C        -1.1352465416       13.2383651324       30.0295275512
  H         6.9972805121       15.1880389943       22.1937326434
  H         6.6427813679       13.8268887368       23.3242734757
  C         5.7618759628       13.5274293898       21.3748642732
  S         2.4028104675        5.4425531054       19.7942989513
  N         2.9209230677        5.9255856596       18.2728645682
  C         3.5651566358        8.0234402304       17.2045852796
  H         3.8995674108       10.2040432994       16.7100500601
  H         1.3607474243        8.5750161816       28.3478302660
  H         0.7790144647        9.1958451770       29.8387978388
  C         2.3803884912       10.3105282015       29.0489206120
  H        -1.0594411611        8.1883778974       27.6103429267
  H        -1.5296044338        8.7939514758       29.2148270850
  C        -2.5604815535        9.6806768653       27.6042525358
  H        -0.9068473695       11.2211626864       30.7729623665
  C        -1.4125289263       14.0489663304       31.3451466532
  H         4.7757066632       13.8931415178       20.9520321545
  H         5.6332113738       12.5161870756       21.7157602504
  C         6.7744721048       13.5383922418       20.2855115821
  C         3.6469224591        7.3207371927       15.9660097147
  H         2.6537925289       10.6263646401       28.0708703673
  H         2.0293983741       11.2070022838       29.4586708323
  C         3.5042086602        9.5313685467       29.7697627931
  H        -2.4060643959       10.0690919839       26.6225073858
  H        -2.8947102055       10.4461980315       28.3688982533
  C        -3.7456148575        8.6934079053       27.4564001288
  C        -1.5242445111       15.4774813391       31.4422879250
  C        -1.5660009316       13.3572051573       32.6284330425
  H         7.4155001537       14.4735129130       20.1640732521
  H         7.3580300228       12.6315091699       20.5711614956
  C         6.2807246273       13.1635521975       18.8913484876
  H         3.5420358734        6.2105517461       16.0043248528
  C         4.1127043419        7.7556191143       14.7909826975
  H         4.1168173690        8.9670650163       29.1451065581
  H         3.0802471658        8.7595423811       30.4646295538
  C         4.4343923755       10.3698601310       30.7548940393
  H        -3.5561209265        8.0831710021       26.5845834346
  H        -3.6615089460        8.0239001969       28.3948757339
  C        -5.1125067305        9.2849358444       27.4094265267
  N        -1.3989727312       16.3339111458       30.3631813804
  C        -1.7068875874       16.1336003582       32.6679741792
  C        -1.7257814090       14.0199769234       33.8527200317
  H        -1.3467761855       12.3315867686       32.6719280249
  H         7.1511941391       12.7512308444       18.3677147757
  H         5.4253105615       12.4561667177       18.7541247944
  H         6.0153584334       14.1555141329       18.3648120073
  S         4.4753261027        9.3405348908       14.3030490524
  C         4.2331399290        6.7186977905       13.7097692662
  H         4.7202338585       11.2572807532       30.2018576738
  H         3.9491174968       10.7044071957       31.6479190790
  C         5.8263108721        9.7885623429       31.1367429498
  H        -5.2703580227        9.9790865670       28.2482289804
  H        -5.7984853695        8.4263202048       27.3333707243
  C        -5.3458941200       10.0488746475       26.1589423848
  S        -1.5266130276       17.8454340786       30.9564077715
  N        -1.6350300929       17.5434188299       32.5237103169
  C        -1.9605258192       15.4670230937       33.8621980181
  H        -1.6162250637       13.4564140049       34.8323403425
  C         4.5531790240        8.6811873606       12.6753221783
  N         4.6007778229        7.3501040240       12.5853182412
  O         4.0990241501        5.5431328814       13.8729823744
  H         6.2841820869       10.5043881307       31.8256374518
  H         6.5560421735        9.7229509432       30.3488455835
  C         5.7613058726        8.4992032166       31.9568561175
  H        -4.6149843962       10.8390363457       26.1023319907
  H        -5.1685184590        9.4058480189       25.2814762890
  C        -6.7845153034       10.6069577243       25.9682389013
  C        -2.2797553894       16.2402831297       35.0467772654
  S         5.2308862380        9.5320619097       11.2483451533
  C         4.6720936774        6.6678575193       11.3137904616
  H         6.2502307043        8.7168525777       32.8785348267
  H         4.7327227525        8.2082879819       32.2264243610
  C         6.5731704356        7.3726904526       31.2944762895
  H        -6.7366939270       11.5301775019       25.3906818220
  H        -7.0793560642       11.0134899735       26.9058700635
  C        -7.7840345563        9.6143290567       25.5057682497
  H        -2.2074694828       17.2929624838       34.8777758327
  C        -2.6324376335       15.8765269940       36.2899821479
  H         5.2954295643        7.0947291998       10.5413028297
  H         5.1111272355        5.7604940851       11.5876406271
  C         3.2966637970        6.5666550180       10.7603803603
  H         7.6236996823        7.4718163303       31.4701998567
  H         6.5187506981        7.5189566804       30.2073028658
  C         6.0701675983        5.9260981015       31.6455717989
  H        -7.5132203797        9.1406464798       24.5831132192
  H        -7.7637731272        8.8473312985       26.2313734852
  C        -9.2053196993       10.2276205059       25.2981317930
  S        -2.9337469119       14.3480830170       37.0544646699
  C        -2.7873098818       17.0101004829       37.2060207901
  H         3.1001818836        5.5723418509       10.5516527286
  H         2.5456704175        6.8468110078       11.5066427520
  H         3.2194870890        7.1762413474        9.9035021733
  H         6.4649274074        5.2641374652       30.9347993089
  H         4.9363328220        5.7743944656       31.6868725374
  H         6.3810884957        5.7291966497       32.6858211758
  H        -9.5557322276       10.2178442628       24.2530145002
  H        -9.1685897724       11.3298260330       25.5652835963
  H        -9.9296996068        9.6885780592       25.9023938086
  C        -3.4350989912       15.2088224124       38.4772658132
  N        -3.3282666970       16.5604768132       38.3582223618
  O        -2.4767329874       18.1521428080       36.9314458207
  S        -3.8771105837       14.4887452689       39.9711335583
  C        -3.6397883850       17.4365795118       39.5101840201
  H        -4.0638066042       18.2835306048       38.9748879629
  H        -4.2961392576       17.0345641012       40.2370787765
  C        -2.3400014518       17.9073078343       40.1639749417
  H        -1.6106079131       17.4292936411       39.4760779200
  H        -2.2549460464       18.9676576245       40.1965520202
  H        -2.3623500199       17.5454529809       41.2328829765
