352
i=
  H         4.4111899270        0.9808171015       12.9399252302
  C         3.9794674223        1.9586620417       12.9951948817
  H         4.8236134149        2.6115038662       12.8607091994
  C         3.2342845222        2.2342269867       11.7098590610
  C         3.1125701560        2.0100281218       14.2443073290
  C         4.1410010420        2.5846767608       10.4600479573
  H         2.5860662483        3.0671318682       11.8413695987
  H         2.5363719812        1.3960241360       11.3755466285
  H         2.1254922986        2.4294220989       13.9122311117
  H         3.4962963338        2.7174836525       14.9954215003
  H         3.0231054751        0.9428887453       14.5831917596
  C         4.7180129431        1.3231741740        9.7586697508
  H         3.5064637373        3.1632734435        9.7530923238
  H         4.8590699512        3.2705628498       10.8054752143
  C         5.4177431604        1.6324962893        8.4770241755
  H         3.9328136607        0.5510692970        9.5943723528
  H         5.3719349844        0.8546440624       10.4544004589
  C         6.5931633596        2.5655812711        8.7451713834
  H         4.6703368860        2.0512741542        7.8164650886
  H         5.6031757606        0.6961996062        7.8797495770
  C         7.8683769954        1.8649917658        9.2849008017
  H         6.7331722467        3.1452061483        7.8850195433
  H         6.2947638504        3.2910528750        9.4871913474
  C         9.0876686395        2.8647148269        9.5181191185
  H         8.2027139742        1.2711562573        8.4357932831
  H         7.7519831643        1.1982241141       10.1133502185
  C         8.6793294072        4.2017583439       10.1916181974
  C         9.5401102482        3.5444850046        8.2254668737
  C        10.3100868385        2.1456311879       10.2630638007
  C         8.9801725275        5.2909549358        9.4311816323
  C         8.1340904994        4.6240933362       11.4381828393
  C         9.5030721683        4.9146410683        8.2016210211
  C        10.0398412973        2.9217605048        7.0604776212
  H        10.0184731129        1.5029089324       11.1360430617
  H        10.7126599675        1.4211209712        9.4767627015
  C        11.4001287154        3.2147488338       10.5404355370
  S         8.6385511208        6.8062239579       10.1271469574
  C         8.1176508660        5.9618639219       11.5717489790
  H         7.9100892662        3.8922021029       12.2256698626
  C         9.8233160732        5.5282025622        7.0520401795
  H        10.0971383120        1.8182016888        6.9556963545
  C        10.3886128357        3.5595415464        5.9392048580
  H        10.9594280815        4.1484613175       10.9006579726
  H        11.9581147019        3.5862033471        9.6627891486
  C        12.5796636061        2.9087723516       11.5834369784
  C         7.6912804406        6.7398519374       12.8266653514
  C        10.3327065096        4.9348821593        5.8867581516
  H         9.8548412078        6.5972023866        7.0415608987
  C        10.9197591682        3.1743739096        4.7275415611
  H        13.3125042667        3.6887319733       11.5387536808
  H        13.1780444304        2.0573960157       11.4122060451
  C        12.0913152900        2.9832227992       13.0206505088
  C         7.6550815478        8.0990741644       12.9695332816
  C         7.4346816667        5.9226417131       14.0859194833
  C        10.7457065474        5.6161286778        4.5633271801
  C        11.1082908725        4.2677121984        3.9395600307
  S        11.1557131819        1.7060863862        3.9134303329
  H        11.8376962066        4.0022740019       13.2530737018
  H        11.1019745656        2.4959219973       13.1279356126
  C        13.0791469788        2.3817007733       14.0206408687
  N         7.8015174503        9.0522868433       11.9438658798
  C         7.3863503405        8.7022611249       14.1680153800
  C         7.0585493934        6.5151394258       15.2508768544
  H         7.3752108048        4.8269596419       14.0202464730
  C        12.0094608573        6.4937969476        4.7514197814
  C         9.6237417715        6.4210933242        3.7518389447
  C        11.4870948128        3.9188201157        2.6187816741
  C        11.5462026987        2.5316706371        2.4792374626
  H        14.0617698584        2.8919939573       13.9496030717
  H        13.3855414448        1.3345278423       13.7595860615
  C        12.4809235626        2.4401280168       15.3928723755
  S         7.8046325494       10.5644141963       12.5476281746
  N         7.4403165498       10.0843228310       14.0539740536
  C         7.0748915830        8.0183189527       15.3719989079
  H         6.8383392290        5.8501853083       16.0868940470
  H        11.7522294685        7.1890423947        5.5040982876
  H        12.2635610368        7.1122294444        3.8442276708
  C        13.1821144864        5.7832016853        5.3601821101
  H         9.3529466423        7.2115935241        4.4991831332
  H        10.0949703909        6.8641857716        2.9332265252
  C         8.4605535272        5.4642496035        3.2662420617
  H        11.4053135953        4.6768836722        1.8690362616
  C        11.7250092287        1.7584307058        1.2012783752
  H        12.0233249988        3.3705552010       15.5415123898
  H        11.7381935891        1.6901717230       15.5761942745
  C        13.4970804682        2.2097274893       16.5636892413
  C         6.7112270234        8.6686067556       16.6117087934
  H        12.8711790638        5.1855624398        6.1654774709
  H        13.5472867739        5.0266626152        4.7108459595
  C        14.3748689064        6.5705792684        5.7702516306
  H         8.1127714726        4.8522089252        4.1296310555
  H         8.6972783371        4.6828142133        2.5689663588
  C         7.2770176678        6.3610640996        2.7915175124
  C        11.7903465215        0.3352294817        1.0631598787
  C        11.7737521771        2.4686363483       -0.0767901029
  H        14.0834186398        3.1264441706       16.4679344361
  H        14.0707647355        1.3758627170       16.3698619663
  C        12.7520675585        2.1381359240       17.8955758764
  H         6.8113884379        9.7040575779       16.5964530614
  C         6.3209842946        8.2059732570       17.8701374849
  H        14.0729883302        7.2897899799        6.4961021454
  H        14.8796954189        7.1129914687        4.9358826881
  C        15.4335260581        5.6748035622        6.4363750274
  H         6.8721043219        6.9832208462        3.5504098927
  H         7.6391709090        7.0292050940        2.0398518228
  C         6.0590383749        5.5166448021        2.3158667030
  N        11.7178922354       -0.5701850145        2.0963133939
  C        12.0464216897       -0.3155664048       -0.1970942659
  C        12.1236944031        1.8723002298       -1.2813223641
  H        11.4309768085        3.4791351942       -0.1306864958
  H        11.6961370715        1.7845424558       17.9730282015
  H        12.6889224088        3.1816576620       18.2624752380
  H        13.4466692131        1.7004238027       18.5340177684
  S         6.0091412688        6.5643150713       18.3819778114
  C         6.2619058163        9.2381610519       18.9620317549
  H        15.5796386767        6.3025908409        7.2510730948
  H        15.0469754052        4.7379282046        6.6675720156
  C        16.7420531007        5.3793584467        5.6262707254
  H         5.7494673967        4.7775012494        3.0517139562
  H         6.3796284168        4.9654794152        1.4441963725
  C         4.8799483059        6.3946575958        1.8854675965
  S        11.7868679718       -2.0050953111        1.4413468989
  N        12.1238934277       -1.6930918860       -0.0909439035
  C        12.3270105241        0.3665741232       -1.4175061574
  H        12.1907242772        2.5674399018       -2.0978541653
  C         5.9841989249        7.2795285909       20.0263463919
  N         6.0292888270        8.6299636642       20.0986203032
  O         6.4415706513       10.4596740491       18.8931044686
  H        16.6106814711        4.6843301606        4.8152562097
  H        17.2516773436        6.3430191947        5.3166457796
  C        17.7777118005        4.8194042603        6.5830231154
  H         4.1775755184        5.8501498874        1.2276721676
  H         4.3164729499        6.6564321984        2.7588653693
  C         5.2110720889        7.7690709047        1.2927407230
  C        12.7142661170       -0.3062390870       -2.6384422576
  S         5.6151578454        6.4117346959       21.5274834685
  C         6.1179426557        9.4376259437       21.3285029187
  H        17.2670878144        4.3077206159        7.3996548540
  H        18.1855349248        3.9971117708        6.0529560647
  C        18.7301371733        5.9112111895        7.2263856015
  H         5.6967720902        7.6959532669        0.3511554462
  H         5.9264265553        8.1994298801        1.8786946589
  C         3.9315881190        8.6704567401        1.1898933168
  H        13.0227403747       -1.3150469913       -2.4846107751
  C        13.3301141776        0.2084119469       -3.8120400389
  H         5.5559433317        9.1077250149       22.1132290983
  H         5.7864507465       10.4473878409       21.2077446542
  C         7.5077188237        9.5159001156       21.7321684753
  H        19.3743393044        5.6003978417        8.0208229607
  H        18.0624256771        6.7028279493        7.5887769947
  C        19.8218203814        6.3964832527        6.2417970126
  H         4.1742647523        9.4522072128        0.4820931072
  H         3.0463518962        8.1612018817        0.8403330623
  C         3.5830012025        9.2315693958        2.5807880110
  S        13.9570064928        1.7977859929       -4.1481063219
  C        13.4841380986       -0.7793652733       -4.9319486197
  H         7.5718335191       10.4885768256       22.2435394714
  H         8.0654685938        9.4173881283       20.8020758605
  H         7.7278181210        8.6414441184       22.3084352171
  H        19.9858932128        5.6761887443        5.4463396431
  H        19.5934932561        7.4018357873        5.8333334597
  H        20.7839255534        6.2746081312        6.7636140384
  H         3.0427106988        8.4863145244        3.1457820059
  H         4.4617049713        9.4475251963        3.2254961475
  H         2.9404763619       10.0799572482        2.5847328081
  C        14.4008562231        1.1445033761       -5.7506478684
  N        14.2333277406       -0.1823809933       -5.8705230187
  O        13.0588616450       -1.9115053292       -4.7668728976
  S        14.8507285840        2.1098014152       -7.1499243864
  C        14.4857187950       -0.9804223964       -7.0516067026
  H        14.9702110339       -1.9185889014       -6.7745912482
  H        15.2683198656       -0.4915746316       -7.6362305265
  C        13.2265513304       -1.1459805225       -7.9539278853
  H        13.1639250835       -2.1536594575       -8.1578715303
  H        13.3602099266       -0.5821571531       -8.8912695616
  H        12.2579387363       -0.8881601491       -7.5300605586
  H        -2.6930694988       14.9836431502       16.4834911614
  C        -3.0816838515       13.9257320277       16.5266591662
  H        -4.0985983399       13.9035395091       16.9108125878
  C        -2.2764362307       13.1894623979       17.5387299365
  C        -3.0090586283       13.1405976474       15.1641620083
  C        -2.0814627601       13.8804416673       18.8287026834
  H        -2.6724599959       12.2509941152       17.6567047592
  H        -1.3189731957       13.0390705397       17.0878005258
  H        -3.5109335133       13.7321813422       14.3918591440
  H        -2.0009222985       12.9205641550       14.9205032241
  H        -3.5584012977       12.1873306314       15.2910362610
  C        -1.6565168195       12.9783739407       19.9944624758
  H        -2.9834650043       14.5158808042       19.1670336477
  H        -1.2934493720       14.5368191757       18.5458018412
  C        -2.3672195464       13.2353075451       21.2861085985
  H        -1.9627156865       11.9267770315       19.7747237761
  H        -0.5619167903       12.8196970289       20.0925109384
  C        -1.4349162421       12.8257171641       22.4548276382
  H        -3.2523599380       12.6448582068       21.3039527983
  H        -2.7834218391       14.2110430391       21.2856832815
  C        -0.2183103204       13.6295883210       22.6426913038
  H        -1.9164846216       12.6974100705       23.4213145368
  H        -1.1592508427       11.8076672454       22.3145825568
  C         0.9605843226       12.9317261143       23.3524481413
  H         0.2482120515       13.9741020351       21.7004512816
  H        -0.3794719867       14.5167306745       23.2577258690
  C         1.2531642265       11.5760769611       22.7125719105
  C         0.5268131265       12.2059897720       24.6320892618
  C         2.2972564095       13.7393985711       23.4460300264
  C         0.9818178390       10.4697814325       23.5217753046
  C         1.8204295714       11.1537947585       21.4854339530
  C         0.4938021960       10.8824548143       24.7579394169
  C         0.1370724188       12.9373670766       25.7493915739
  H         2.5356879440       14.3104201038       22.5783334554
  H         2.1587925531       14.5514805221       24.1857114327
  C         3.5181192216       12.8658763807       23.8555278269
  S         1.2829375973        8.9699281632       22.7487140586
  C         1.9623665593        9.8089544963       21.3700774199
  H         2.1463096820       11.8964896753       20.7720680300
  C         0.0294448071       10.2777593007       25.9045118704
  H         0.1222171621       14.0295971922       25.6461794102
  C        -0.2667556943       12.3663620339       26.9164571839
  H         3.8461565074       12.1322688882       23.1052208311
  H         3.1695681671       12.1865206754       24.6149460130
  C         4.7178392551       13.7146808213       24.3492786400
  C         2.4302011910        9.1518468169       20.0951958662
  C        -0.3568257986       10.9779629151       27.0191459313
  H         0.2272462250        9.2498792246       25.9829673988
  C        -0.5898469827       12.8052703833       28.1783066596
  H         5.4031885973       13.1116370590       24.9648443836
  H         4.3710262215       14.4223669811       25.0751584693
  C         5.4487623268       14.3921954800       23.1004081703
  C         2.4303721922        7.7692883797       19.8117887763
  C         2.8596725255        9.9865869875       19.0056625444
  C        -0.7514593761       10.3577205985       28.3184201385
  C        -0.9480225351       11.7638143148       28.9993960410
  S        -0.7803698947       14.3330883949       28.8904761612
  H         6.1093711611       15.1483008623       23.4138179770
  H         4.6720242985       14.8596403488       22.4952882884
  C         6.3284742768       13.3875497137       22.4317524466
  N         2.1695619789        6.8188207847       20.7526247831
  C         2.7440240013        7.1786935653       18.6162218678
  C         3.0263679136        9.4161813118       17.7482191461
  H         2.7434681665       11.0304507598       19.0129583980
  C         0.4045259511        9.5006026628       29.0274572680
  C        -2.0052415857        9.5531311714       28.2289350533
  C        -1.3767075522       12.1787359367       30.2826951264
  C        -1.3022885924       13.5582304215       30.4073426239
  H         7.3444897915       13.4970555540       22.6721801322
  H         6.1479499690       12.3853304866       22.8393708990
  C         6.2808520997       13.3843319060       20.9346504946
  S         2.1593644018        5.3253791120       20.0668880643
  N         2.6819893520        5.7652940369       18.6333093811
  C         3.0801459242        7.9675181049       17.5239583694
  H         3.1894918269        9.9905587952       16.9080016608
  H         0.8126320320        8.9081055014       28.2254210828
  H        -0.0522993245        8.8033753794       29.7899031481
  C         1.6848354161       10.2428786046       29.5087375203
  H        -1.8891813987        8.7434701709       27.5055213085
  H        -2.2133789032        9.1246098548       29.1574699679
  C        -3.2166849499       10.4210492329       27.7818263521
  H        -1.7751148412       11.4785534509       31.0621140082
  C        -1.6328665125       14.3057417311       31.6288950982
  H         5.6702571120       14.2025319044       20.5245469855
  H         5.6525610337       12.5108605031       20.6244505141
  C         7.6207509093       13.4351076128       20.2810526977
  C         3.3013552252        7.3468894346       16.2554204330
  H         2.1084474099       10.9218843054       28.7184079339
  H         1.2446083932       10.8361570255       30.3034557445
  C         2.7475677432        9.2593850677       30.0884645766
  H        -2.9340613868       11.1004590190       26.9445120237
  H        -3.6418924326       11.1415846521       28.4748775916
  C        -4.3459081993        9.6443909660       27.1809285773
  C        -1.6674324520       15.7091686216       31.6987771105
  C        -1.8973662724       13.5199226111       32.8922039446
  H         8.1903589739       14.2590668756       20.7286934392
  H         8.1410205339       12.4755270078       20.4366716262
  C         7.4146186983       13.6982643795       18.7640716565
  H         3.4318666939        6.2960608223       16.3402174872
  C         3.5840525829        7.7741186946       15.0172804449
  H         3.2167545446        8.6995171537       29.2168335397
  H         2.1942653918        8.5211131895       30.6977283124
  C         3.7917942088       10.0154779873       30.8957116913
  H        -3.9048027546        9.1278525865       26.3261504131
  H        -4.5469493519        8.8264340536       27.8339692700
  C        -5.5953226491       10.4874808593       26.8479821588
  N        -1.4677052257       16.6597181520       30.6365321752
  C        -1.8572840978       16.3671724349       32.8682428183
  C        -2.2665044462       14.2008391021       34.0499306452
  H        -1.8187738376       12.4199965306       32.8173560606
  H         8.2247074274       13.8567181757       18.1280302102
  H         6.7486189907       12.9443989456       18.3681481224
  H         6.8414057601       14.6260667719       18.5821272133
  S         3.8496714061        9.4078216642       14.5426275304
  C         3.7695764908        6.7909299034       13.9508450754
  H         3.9064092062       11.0335046351       30.4694351389
  H         3.2738742729       10.2100046720       31.8292763854
  C         5.1838697589        9.3467333494       31.1058997521
  H        -5.2053943578       11.4918837786       26.5401626246
  H        -6.0824054899       10.7650331255       27.7922551733
  C        -6.3441922987        9.7642320521       25.7819256452
  S        -1.6374180865       18.1681796277       31.1841205026
  N        -1.9737142612       17.7560517469       32.6902875107
  C        -2.1941351317       15.7076128098       34.0542472796
  H        -2.4538703429       13.7551500331       34.9837907194
  C         4.1985316034        8.7367196147       12.9415144655
  N         4.1837269002        7.3856169177       12.8205108818
  O         3.4228496881        5.6287673625       14.0633770634
  H         5.7433995540       10.0131333138       31.6474163488
  H         5.7788116969        9.1508894456       30.1712802577
  C         5.2218368095        8.0202917856       31.8486831072
  H        -5.7546969492        9.3385752039       25.0501470887
  H        -6.7906960148        8.9330602054       26.2554346742
  C        -7.4274486711       10.6160653186       25.1379047416
  C        -2.4194549590       16.5170174736       35.2535937586
  S         4.4298596808        9.7556855518       11.5101464965
  C         4.3894355480        6.6751392851       11.6551623984
  H         5.6430412275        8.1290777473       32.8753109712
  H         4.1761272915        7.8159489726       32.1289058263
  C         5.9200164073        6.9821561360       30.9995036722
  H        -7.0798423103       10.6430735541       24.1641244033
  H        -7.2970676814       11.6856388018       25.2556816894
  C        -8.8310323638       10.0637671075       25.1396018647
  H        -2.3979669675       17.5504708170       35.0596852907
  C        -2.8542403751       16.1938348767       36.5595733663
  H         5.1860282101        7.1740162695       11.1083320086
  H         4.6970232178        5.6626445608       11.8388635897
  C         3.0456147992        6.4823329675       10.8805490153
  H         6.8439657826        7.3044290599       30.6042822466
  H         5.2922174350        6.7970465300       30.1715035113
  C         6.1213053334        5.7202210705       31.8264611346
  H        -9.4963853997       10.2371861737       24.2243394124
  H        -8.5889066830        9.0572140702       25.1255410434
  C        -9.6169589119       10.2277594403       26.4220096491
  S        -3.4037305304       14.6584235027       37.1166872853
  C        -2.9166322605       17.2774215692       37.5613230463
  H         2.9308748999        7.1820729916       10.0649697165
  H         3.0885416578        5.6048989428       10.3302941173
  H         2.1938109437        6.4692015530       11.5762003774
  H         6.7088722707        5.0203769882       31.2092087227
  H         5.2018483321        5.2617714222       32.1914007880
  H         6.7219858149        5.9176104749       32.6623424093
  H        -9.9199889253        9.2733396718       26.8248155064
  H       -10.6225503414       10.6042755526       26.2477956338
  H        -9.1516596611       10.8206231053       27.1412426154
  C        -3.6917792395       15.4838956696       38.6213008790
  N        -3.5599877524       16.8459189834       38.6088265332
  O        -2.5999546928       18.4190753820       37.3269306611
  S        -4.5791279559       14.8549265226       39.9474938997
  C        -3.8099932613       17.6656512705       39.8003909877
  H        -3.7612717166       18.7157126039       39.5157364408
  H        -4.7752222214       17.4791375077       40.2660571336
  C        -2.6105986464       17.5341518880       40.8038473060
  H        -2.0648587638       18.4568140539       40.7758057844
  H        -2.9009888487       17.3310944556       41.8088084026
  H        -1.8988318895       16.7226012147       40.5692577373
