352
i=
  H         2.3012575507        3.2520879670       12.5442752764
  C         2.7843653418        2.2933880698       12.8157652614
  H         2.3621773556        1.5079407548       12.1631053814
  C         4.2249312274        2.5115615818       12.5912055449
  C         2.4670817308        2.0237172717       14.2828947703
  C         4.6620669465        2.7142568955       11.1077281309
  H         4.8731127908        1.7942688205       13.1281899955
  H         4.4578205754        3.4572068302       13.1311008558
  H         3.0490518635        1.2785985312       14.7996408709
  H         1.4477088169        1.6887173185       14.3165715157
  H         2.5247477349        2.9308393565       14.8991694082
  C         4.8190414180        1.4051803515       10.2758872458
  H         3.9674804524        3.2804975195       10.4993260624
  H         5.6234248247        3.1684055498       11.0503006157
  C         5.1983516641        1.6614484774        8.7552656269
  H         3.9371623922        0.8731775750       10.3338187983
  H         5.5409828560        0.8203863348       10.8552404906
  C         6.5692901970        2.3459523746        8.5603809650
  H         4.4438480531        2.2608365040        8.2451632312
  H         5.2757583449        0.7222109904        8.2707818149
  C         7.8580666040        1.6492570822        9.0173072140
  H         6.6907948524        2.5814229148        7.5429896383
  H         6.4446419844        3.3624627756        9.0312906889
  C         9.0976077517        2.4788821658        9.2022095507
  H         8.0405537173        0.8281244582        8.3472135248
  H         7.6963220608        1.2163340846        9.9956561658
  C         8.6345824211        3.7745062487        9.7812061210
  C         9.5472930408        3.2247683102        7.9328144650
  C        10.1814757513        1.8108757161       10.1414381828
  C         8.8499882108        4.8781415573        9.0284120528
  C         8.1195569824        4.1987994916       11.0235705946
  C         9.4608044004        4.5687816925        7.8400835722
  C        10.0740245160        2.5988542878        6.7340378127
  H         9.6696775561        1.4343297885       11.0388136268
  H        10.5937694747        0.9998548745        9.5303671276
  C        11.5070823817        2.5618953624       10.3214576310
  S         8.3360195793        6.3533317589        9.7088135627
  C         7.9906405368        5.5783430202       11.1478610805
  H         8.0316291212        3.5581076233       11.8523304710
  C         9.9069337836        5.2198549953        6.6981088763
  H        10.0598780443        1.4713198511        6.6912674266
  C        10.4643925821        3.2624017375        5.6427412809
  H        11.4139068008        3.6702345910       10.3143691410
  H        12.0594750863        2.5196775624        9.4474800181
  C        12.3525825189        1.9253152704       11.4069084957
  C         7.5856161024        6.2672135280       12.3917942010
  C        10.4021401409        4.6280990409        5.5404357417
  H         9.8065941348        6.3068256469        6.8420663877
  C        10.8162113242        2.9785689957        4.3331263642
  H        13.2758688738        2.5267695180       11.3841974593
  H        12.8717354810        0.9925893767       11.1704127563
  C        11.8497986406        1.9648491720       12.8366191126
  C         7.7284223149        7.6813961349       12.6283829635
  C         7.0664855042        5.4170678939       13.5114217951
  C        10.7940521168        5.3654468948        4.3464297613
  C        10.9987785789        4.0465612035        3.5546582270
  S        11.0842897155        1.5043726617        3.5306401868
  H        11.2464033479        2.8586793315       12.9278143705
  H        11.1967955662        1.1153004453       13.0505326341
  C        13.0594835015        2.1590016686       13.7998208991
  N         8.2366988186        8.6078489540       11.7186532625
  C         7.5899876368        8.2304181349       13.8953177062
  C         6.9150999177        5.9922667582       14.7712251202
  H         6.5643348917        4.4801346236       13.2819117853
  C        12.1511439263        6.1368856175        4.5048985487
  C         9.6396203626        6.2220107026        3.8144523262
  C        11.2270076032        3.6688054078        2.2164975564
  C        11.4908688113        2.3281230013        2.0670240345
  H        13.4058405389        3.1334737638       13.8653026286
  H        13.9142975796        1.6493630705       13.3682743728
  C        12.7597489753        1.3929477912       15.1243949507
  S         8.2988465151       10.0875726557       12.4354118027
  N         7.7936726235        9.6296582342       13.9382540124
  C         7.2504271193        7.4396771299       15.0145891893
  H         6.4189823580        5.3567669886       15.4715167018
  H        11.9293492698        6.9799421397        5.1573715943
  H        12.3602477523        6.6083725673        3.5802411645
  C        13.4088921158        5.3289736774        4.8450459733
  H         9.3023515231        6.8016232325        4.6260723721
  H        10.0695126191        7.0150466388        3.1029242389
  C         8.4449585983        5.4056780207        3.2939238283
  H        11.2824034362        4.3728983365        1.3991611015
  C        11.8370871516        1.5772049787        0.7962915282
  H        11.7470495489        1.0857906267       15.1498086383
  H        13.1431976766        0.3805985415       15.1952015612
  C        13.0907009316        2.2611187181       16.3152476909
  C         7.1236476369        8.1343036745       16.2435461055
  H        13.1584696729        4.6747851621        5.6461730022
  H        13.6585135598        4.7403503889        4.0186846544
  C        14.6284833465        6.1422933281        5.2411580699
  H         8.1264678988        4.6438754406        3.9799530121
  H         8.7922189967        4.9429720836        2.3769746255
  C         7.2725249938        6.2840429426        2.9246208301
  C        11.8713586841        0.1505360355        0.6370232621
  C        12.1308081898        2.3238366882       -0.3906028941
  H        12.4078563483        3.0957765358       16.2357252571
  H        14.1472937364        2.5988891178       16.1157589354
  C        13.2039926980        1.6552374960       17.6918933481
  H         7.5665258544        9.1219739710       16.2397434967
  C         6.8160369544        7.7016674862       17.4660429939
  H        14.3877456085        6.9363215266        5.9046730740
  H        14.9743489711        6.4705620561        4.3093687346
  C        15.7321591081        5.2684983921        5.7293422769
  H         6.7258034100        6.1495481508        3.8683533995
  H         7.4952140352        7.3656203227        2.9370908668
  C         6.4588017377        5.8173564871        1.7361261213
  N        11.4696807257       -0.7434526242        1.6028960668
  C        12.1618365258       -0.4900663101       -0.5537806771
  C        12.3804374943        1.6849060851       -1.5876882934
  H        12.2397023121        3.3504453873       -0.3223185793
  H        13.8131072268        2.2516429908       18.3973531873
  H        13.5965376697        0.6235959502       17.5286209416
  H        12.2020048480        1.5276146876       18.1481868675
  S         6.2761347238        6.1305164723       17.9848489193
  C         6.9286981980        8.6850756281       18.5900379193
  H        15.3732377365        4.6666217365        6.5503385355
  H        16.0024055764        4.6371889185        4.9211268485
  C        17.0036541263        6.0157795406        6.2285667922
  H         6.1001654757        4.7821643045        1.9269249034
  H         7.0686621857        5.8483071892        0.9048826873
  C         5.2560250315        6.8310242622        1.6275039808
  S        11.7644314991       -2.2623210292        1.1314077791
  N        12.3456987471       -1.8198191811       -0.3178596701
  C        12.5221218730        0.1925995444       -1.7419645348
  H        12.6383235813        2.3417748402       -2.3914348644
  C         6.1444947102        6.8898057191       19.5850658749
  N         6.5414661970        8.1691993379       19.7459412100
  O         7.2371648185        9.8594486938       18.4073464344
  H        17.6988313271        6.2910135126        5.4152320454
  H        16.8266012814        7.0020416115        6.6884601318
  C        17.7394872493        5.1519061268        7.2582692374
  H         4.4463894688        6.3408241706        1.0238127388
  H         4.9168941042        7.0861421723        2.6039647088
  C         5.6343155840        8.1408201660        0.8990763584
  C        12.9889150379       -0.5399944198       -2.8650084986
  S         5.7988381816        6.0577514567       21.0425841933
  C         6.7448337237        8.8441013171       21.0208194585
  H        17.0824872366        5.0622860290        8.1008624911
  H        17.9525754155        4.1626870270        6.8108212636
  C        19.0654627942        5.7620237531        7.7643672736
  H         5.8381802586        7.9060882578       -0.0995388949
  H         6.5946613726        8.5328517720        1.2182422535
  C         4.5777631686        9.2160535890        0.9135993242
  H        12.9487349455       -1.6147110684       -2.7187212683
  C        13.5171811978       -0.0864768362       -4.0418897162
  H         6.0502629509        8.5722985529       21.7427565820
  H         6.3799628472        9.8502194269       20.8017464440
  C         8.1295302192        8.8784448720       21.6732228275
  H        19.2926362931        5.2783126958        8.6495285771
  H        18.8878537413        6.8593268575        7.8821489504
  C        20.1548206530        5.7533892977        6.6931818615
  H         4.8712774629       10.0974314827        0.3778350802
  H         3.7587110268        8.8537544049        0.3201604533
  C         4.2085945090        9.6443373230        2.3946791685
  S        13.9001015350        1.4814065773       -4.5642265626
  C        13.6263616116       -1.1422687446       -5.0936081186
  H         8.2649126656        7.9934604319       22.3306729084
  H         8.1784336784        9.7156946341       22.3279129695
  H         8.9776849762        8.9954487176       20.9828629856
  H        19.7703246998        6.0783757718        5.7777529890
  H        20.9751018609        6.4265895209        6.8847561184
  H        20.4732512260        4.6638724109        6.5871883628
  H         3.5061878521       10.4327295515        2.3993581875
  H         3.8070221194        8.8104028956        3.0402269925
  H         5.0645537842       10.1958059794        2.7286102025
  C        14.3921141464        0.6984511246       -6.0939220361
  N        14.2889109102       -0.6106521106       -6.1212025095
  O        13.4015086670       -2.3586594223       -5.0055845460
  S        14.9515539215        1.5470899255       -7.5443388917
  C        14.5497703096       -1.3636732901       -7.3166402488
  H        14.6817982480       -2.4289760807       -7.0469781718
  H        15.4339314307       -1.1599680136       -7.8167535287
  C        13.3868163785       -1.3728253052       -8.2366369177
  H        12.4221639864       -1.1414822079       -7.7784918934
  H        13.2955485076       -2.3234641706       -8.7567364862
  H        13.6877271117       -0.6120808693       -9.0641063259
  H        -2.9588026696       14.9916208404       16.4061862622
  C        -2.8639375788       13.9113367159       16.4861053183
  H        -3.8235602423       13.6025637069       16.8647430324
  C        -1.8775853529       13.5686646022       17.5625980491
  C        -2.5703994469       13.3548044701       15.1641100674
  C        -2.2060637521       13.9485773786       19.0757660958
  H        -1.6193892039       12.5216489844       17.5195947887
  H        -0.9346758336       14.0832108557       17.3099613694
  H        -1.6106783739       12.7937476035       15.1329381766
  H        -3.3939009675       12.7917767120       14.6581126356
  H        -2.4280260626       14.1215605104       14.4321436304
  C        -1.3376344545       13.1941490471       20.0883367219
  H        -3.1545123469       13.6211494083       19.3544761981
  H        -2.1237341671       15.0435761172       19.1802948985
  C        -1.9213185375       13.2621593471       21.4743885320
  H        -1.1889192977       12.1328774103       19.8738524770
  H        -0.4286540882       13.7213381401       20.0602368872
  C        -1.0030597730       12.6490673177       22.5092254971
  H        -2.9401853188       12.7953003543       21.4877205359
  H        -2.1545706949       14.3216499270       21.7478470874
  C         0.2498735976       13.5921614661       22.8190863287
  H        -1.5328220547       12.5144321724       23.4189676518
  H        -0.7274714155       11.6872465573       22.1167340184
  C         1.4453653126       12.9956183147       23.4554890221
  H         0.7334060077       13.9292655590       21.9124057661
  H        -0.0740879305       14.5553691895       23.2447548988
  C         1.7371755955       11.7172404901       22.7701583572
  C         1.0115855511       12.3002855975       24.6624719405
  C         2.7152554783       13.8448837154       23.6573762559
  C         1.5083278230       10.5969384702       23.5428131507
  C         2.2719619261       11.3598237323       21.4843215714
  C         0.9848334505       10.9520702128       24.7476431842
  C         0.3848053350       12.9663354157       25.6996577347
  H         2.8281888797       14.3895136629       22.7230498913
  H         2.6216143542       14.5486773071       24.4083216853
  C         4.0218011475       13.1296129881       23.9657547983
  S         1.8660047822        9.0992996331       22.7705514776
  C         2.5105111302       10.0106241581       21.3422871756
  H         2.4793891033       12.1270902007       20.7208774594
  C         0.4715993970       10.3223411853       25.8078583728
  H         0.4371481254       14.0579039527       25.6861865333
  C        -0.0557260987       12.3470181955       26.8355358079
  H         4.2665889620       12.4962221437       23.1527184873
  H         4.0043424465       12.5252374217       24.9310886508
  C         5.1973358893       14.0427340940       24.2247639720
  C         2.9267392040        9.3781599391       20.0316454859
  C        -0.0017056849       10.9788590131       26.9381280816
  H         0.5996808498        9.2305022225       25.8310945368
  C        -0.4000145238       12.8132022000       28.0955515881
  H         5.9289379202       13.4850085114       24.8397113591
  H         5.0194179199       14.9142608472       24.8277138745
  C         5.8978530037       14.4665959405       22.8623247915
  C         2.8480955158        7.9924558325       19.7643974754
  C         3.4111721244       10.1778790915       18.8188465711
  C        -0.4177095317       10.3527222551       28.2149947000
  C        -0.5959774891       11.7071148050       28.9112613719
  S        -0.4971697798       14.2457552381       28.9784775401
  H         6.6228718954       15.2973330180       23.0631519804
  H         5.2263436250       15.0038232632       22.1504023601
  C         6.6344509934       13.3823578140       22.2043382720
  N         2.3957848322        7.0923574440       20.7338546411
  C         3.1785613215        7.3965691896       18.5683151546
  C         3.7268232972        9.5971372597       17.6179455236
  H         3.4516379815       11.2315919816       18.9367867957
  C         0.6973011918        9.5188726922       28.9124116214
  C        -1.7533527312        9.6074939020       27.9685282518
  C        -0.9452967745       12.0755099634       30.2070451798
  C        -1.0018109409       13.4632941376       30.3909883895
  H         7.6535412152       13.7280117483       22.1723976274
  H         6.7456778027       12.4654737767       22.6365325436
  C         6.1506294598       13.1204866999       20.8020594078
  S         2.4845893357        5.6278853517       20.1305178286
  N         2.9606552249        6.0102146578       18.6227349775
  C         3.4449577280        8.1588029300       17.3766380813
  H         4.0829355452       10.2727234033       16.8134591990
  H         0.8721162007        8.6049291766       28.3644952102
  H         0.1852645912        9.3030347957       29.8868548413
  C         2.0475935121       10.2656817874       29.1756017004
  H        -1.6671671016        8.9964455214       27.0309787612
  H        -1.8669805924        8.8736524597       28.7147345034
  C        -3.0744961844       10.4676296305       27.8917922807
  H        -1.2153131984       11.4184780247       30.9829929870
  C        -1.2773766394       14.2532610406       31.6201010209
  H         5.3980832016       13.8774092458       20.5231089629
  H         5.6440297527       12.1589013910       20.7417908714
  C         7.2611062269       13.1911584615       19.6485973671
  C         3.5839497468        7.5004909030       16.1468980635
  H         2.4346907868       10.6528781544       28.1736069082
  H         1.8468049058       11.1636024423       29.7959831130
  C         3.1917050160        9.3200317805       29.7109457521
  H        -3.0029846097       11.2373169572       27.1715008974
  H        -3.2071887712       11.0765108266       28.7631604969
  C        -4.2957370212        9.6071711077       27.6847294285
  C        -1.3482654773       15.6813065296       31.7347099960
  C        -1.6492243017       13.4853262055       32.8575608687
  H         7.9451519451       14.0977891980       19.7181092736
  H         8.0509366214       12.3204048045       19.7924210272
  C         6.6831455078       13.1250441857       18.1732492743
  H         3.5804041293        6.4322845251       16.1064701619
  C         3.8889254242        7.9644013926       14.8366889474
  H         3.3788076371        8.5014760663       29.0401783006
  H         3.0162315122        8.8301922982       30.6218244958
  C         4.5383441432       10.1111472732       29.8958443325
  H        -4.3628667702        8.9137008937       26.8146172114
  H        -4.6206594273        8.8919110874       28.4751006199
  C        -5.4463052618       10.5757795991       27.4741469019
  N        -1.2646127212       16.5191034053       30.6653430168
  C        -1.7016249598       16.3462169153       32.8713710448
  C        -1.9097086387       14.2059533516       33.9870776574
  H        -1.6130294305       12.4152020500       32.9898927792
  H         7.4629325055       13.0759955436       17.4440577734
  H         6.0734510599       12.2392385203       17.9881128841
  H         6.1473517315       14.1000147618       18.0814807899
  S         4.0408123442        9.5720445259       14.3636839592
  C         3.8955129658        6.9674935905       13.7436151636
  H         4.6534004323       10.7604903265       29.0502387357
  H         4.4656063176       10.6375897145       30.8312064059
  C         5.7735797231        9.1315719224       30.0131229705
  H        -5.3988411962       11.5025511830       28.0479652637
  H        -6.3254493620       10.1070228459       27.8966340463
  C        -5.6469585883       10.9456338374       25.9605899029
  S        -1.2550117068       18.0428616839       31.2089651092
  N        -1.6870441912       17.7338991521       32.7325132667
  C        -2.0548794072       15.6560191374       34.0645976566
  H        -1.9843176110       13.6081299231       34.8606792265
  C         4.1911742638        8.9705525520       12.7079733212
  N         4.0569182719        7.6050987128       12.6060535812
  O         3.7490150416        5.7601719477       13.9386048252
  H         6.7561886480        9.7151348549       29.9268319212
  H         5.7891431968        8.5361692424       29.1022846120
  C         5.8904119911        8.3267868109       31.3024816827
  H        -5.1113084350       11.8231958850       25.8667705808
  H        -5.1492919736       10.2200438604       25.3156993732
  C        -7.0968022434       11.2680193490       25.5523609188
  C        -2.3351111032       16.3874754820       35.2710840982
  S         4.9078726422        9.9346575806       11.4388953081
  C         4.2916859971        6.8872722277       11.3384386020
  H         6.9474878118        8.1445455969       31.4546206151
  H         5.5024203988        8.8414064081       32.1779130601
  C         5.2520755906        6.9327865862       31.1220238823
  H        -7.1649200126       11.5559550886       24.4847520848
  H        -7.4772752387       12.0611789906       26.1372902141
  C        -7.9183869352       10.0223187986       25.7025257576
  H        -2.1639292263       17.4010235343       34.9853679408
  C        -2.6429397912       16.0447622281       36.5598786878
  H         5.0470378516        7.4282922408       10.8362407629
  H         4.6357008266        5.9054566736       11.5846384451
  C         2.9369556154        7.0096057215       10.5585014426
  H         5.8332513210        6.3382946624       30.4454935533
  H         4.2502996789        6.9623014900       30.6812903353
  C         5.1183188469        6.0557117307       32.4184078134
  H        -7.7489019678        9.3707131197       24.7944818659
  H        -7.6703253027        9.4323827339       26.5435754697
  C        -9.4414844167       10.2684284975       25.7075508558
  S        -2.7630306045       14.5130588662       37.3229549989
  C        -2.9028246324       17.2036985382       37.4269569037
  H         2.1617504719        7.3028521717       11.2517911051
  H         3.0972777739        7.9013678451        9.8955312461
  H         2.7733972598        6.0859693801       10.0695448676
  H         4.8057594377        5.0724698269       32.1853098596
  H         4.3814846294        6.6219196918       33.0776940599
  H         5.9741556554        5.8949830103       33.0221333742
  H        -9.7091865541       10.7701877338       24.7975342209
  H        -9.8520125580       10.9589855556       26.5022276144
  H        -9.8966739750        9.2973477800       25.8917202789
  C        -3.2411268951       15.4570507754       38.7451276696
  N        -3.3618416137       16.7839953147       38.6210376689
  O        -2.8915248297       18.3721682907       37.0379949033
  S        -3.5551888759       14.7573778912       40.2940752867
  C        -3.4900373874       17.7592651580       39.7170781646
  H        -3.7164000169       18.7073125732       39.3153300084
  H        -4.2585799004       17.5780146723       40.4279697085
  C        -2.1736436193       17.8936350831       40.4996857090
  H        -2.1983980422       17.2163612369       41.4079313088
  H        -1.3101097099       17.7645395241       39.8602870491
  H        -2.1202383147       18.9310949436       40.8980697023
