352
i=
  H         4.4437110113        1.0422131142       12.5743840225
  C         3.8703691089        1.9536648110       12.3665343512
  H         4.5809493351        2.7818977282       12.4920431687
  C         3.4304475424        1.7864131548       10.8707082280
  C         2.5844890387        1.9722120781       13.2457256519
  C         4.3848551895        2.3031230996        9.9057636643
  H         2.5212834182        2.3736947026       10.7068935006
  H         3.2253897784        0.7532406851       10.5581480016
  H         2.8609892212        1.7421112808       14.3129199934
  H         1.8960885306        1.1408438176       12.9501005727
  H         1.8761119711        2.8251809859       13.1172383142
  C         5.0685195468        1.1669636347        9.2410625576
  H         3.7616185588        2.8510025575        9.1573144895
  H         5.1041609654        3.0642438179       10.2899003779
  C         5.7590928453        1.6545901096        7.9564930441
  H         4.2625129267        0.4732982554        8.8496067607
  H         5.8240099597        0.7796471457        9.8790571253
  C         7.0207123560        2.5124812151        8.2202349863
  H         5.0082842635        2.1679200942        7.3985470537
  H         6.0899060442        0.8607575930        7.4117599978
  C         8.2219815172        1.8857697033        8.9402898819
  H         7.2450865205        2.9102456881        7.2017201175
  H         6.6761283807        3.4507092726        8.7748484196
  C         9.3576596078        2.9572128188        9.1810273421
  H         8.6128270137        1.0635278082        8.2876120209
  H         7.9604060689        1.5073477845        9.9692086926
  C         8.8417385207        4.1721652324        9.8958546580
  C         9.6815356486        3.7321963962        7.9780287123
  C        10.5472234490        2.4198608949        9.9533189403
  C         9.0525675525        5.3555680582        9.1695893260
  C         8.4191881574        4.4760032297       11.2053036593
  C         9.4929228263        5.0635698976        7.8746546024
  C        10.1621748952        3.1744816640        6.7879050823
  H        10.2807677426        1.9444032723       10.9332003365
  H        11.0419651923        1.6582162925        9.4047214272
  C        11.7792927308        3.4420211077       10.1161469161
  S         8.5703598726        6.7633147500       10.0077380198
  C         8.2118562250        5.8531240983       11.4099391336
  H         8.1538160300        3.6148635979       11.8464656310
  C         9.8482336635        5.6738757290        6.6900506510
  H        10.2031084186        2.1083121080        6.7872345945
  C        10.5113794397        3.7359281377        5.5994506053
  H        11.2981678401        4.3996546633       10.3886189517
  H        12.1521480411        3.7305563736        9.1706708989
  C        12.7582041234        2.8919302881       11.1116968845
  C         7.6271229669        6.5259992637       12.6465404901
  C        10.3697384361        5.0827451194        5.4849700879
  H         9.8371069749        6.6923158392        6.6957344040
  C        10.9051437191        3.3674038493        4.3322711539
  H        13.6585955862        3.5283199447       10.9366230451
  H        13.0300800783        1.8229522977       10.9614490322
  C        12.3288964429        3.1893888795       12.5433241891
  C         7.5089588884        7.9196409229       12.8305500181
  C         7.2758593519        5.6404678210       13.7862131673
  C        10.6543478493        5.7715372125        4.1642117040
  C        11.0110773952        4.4715545448        3.4619387358
  S        11.1608072187        1.8640413585        3.5678086731
  H        12.6162699357        4.2413541937       12.6873150206
  H        11.2252181137        3.0018425022       12.5588726265
  C        12.9700937304        2.3030960394       13.5764379249
  N         7.9531837434        8.9109775556       11.9306732697
  C         7.1463960417        8.4524844679       14.0462509236
  C         6.8255721163        6.2127738605       14.9555705937
  H         7.3502905097        4.5652687484       13.7428002897
  C        11.9953259705        6.6727141664        4.2330026770
  C         9.3475884052        6.3852988033        3.5192099931
  C        11.3604723017        4.0077515969        2.1492790870
  C        11.4108845449        2.6795632948        2.0727840988
  H        13.7797123552        2.8416757186       13.9688098306
  H        13.3746087810        1.3908691776       13.1196568084
  C        12.1088536825        2.2247120562       14.7568485353
  S         7.7784504134       10.3612895287       12.7030057245
  N         7.1573859883        9.8680508607       14.1196928230
  C         6.7569259364        7.6773640765       15.1640449113
  H         6.6545625273        5.6027919347       15.8359070798
  H        11.8347583267        7.4616255497        4.9966418383
  H        12.1778525613        7.2980742531        3.3367437494
  C        13.2030519600        5.7865677597        4.6179411542
  H         9.0071045885        7.1896754974        4.1537611713
  H         9.6550091737        6.9831842313        2.6095690541
  C         8.1818181962        5.5300361731        3.1698148653
  H        11.4686375443        4.7101387747        1.3528727587
  C        11.7000336540        1.8359581393        0.8289601823
  H        12.0558780586        3.2581833444       15.1250713322
  H        11.1820970627        1.8251558825       14.4322316308
  C        12.6753859474        1.3415300874       15.9150344309
  C         6.3831013612        8.3781604924       16.3774540905
  H        12.9584006169        5.2566312298        5.5646553668
  H        13.4321578078        5.0658287730        3.8773475350
  C        14.4541862472        6.6265251422        4.7738222982
  H         7.6873793812        5.1548666813        4.1036240806
  H         8.4634418772        4.7362678296        2.4695190449
  C         7.2563187031        6.4367818050        2.3524752937
  C        11.6949068075        0.4254750689        0.7387556273
  C        11.9874693629        2.5723499002       -0.3937859465
  H        13.6537794847        1.7167954310       16.1758857619
  H        12.7632395011        0.2681127952       15.6254087471
  C        11.6623313935        1.3121541106       17.0368537024
  H         6.5010429167        9.4870387881       16.4031127022
  C         6.2151611831        7.9243972549       17.6578229668
  H        14.3448840101        7.3749007054        5.5407740630
  H        14.5680717632        7.1998507027        3.9103649887
  C        15.6706849572        5.6805092744        5.0954963501
  H         7.0616619453        7.3788050047        2.8825131844
  H         7.7685803821        6.7366789435        1.4062480360
  C         5.8758769108        5.8707855019        2.0367847868
  N        11.4945108567       -0.4894921053        1.8039385469
  C        12.0825171313       -0.1951074556       -0.4663022491
  C        12.2707775478        1.8995710076       -1.6138771546
  H        12.1583443783        3.6236056040       -0.2905880807
  H        11.5568229113        2.3682478201       17.3726109517
  H        11.9850499544        0.7769909675       17.9368342673
  H        10.6256764671        0.8887099334       16.7573786381
  S         6.0888883663        6.2461812233       18.1199647794
  C         6.0279243359        8.8576469380       18.7811094545
  H        15.3429038529        4.7069011235        5.3522944086
  H        16.1740331007        5.6013720221        4.1658740179
  C        16.5175427794        6.2067964638        6.2546006398
  H         5.4655382558        5.3255170654        2.8913712957
  H         6.1591735785        5.0663949436        1.2883515002
  C         4.9827606135        6.9512478444        1.4870135821
  S        11.6056608121       -2.0159807655        1.1532490985
  N        12.0983608741       -1.5929880395       -0.3463258965
  C        12.3355117710        0.4220684596       -1.6800196936
  H        12.3499573440        2.4742526185       -2.5106610905
  C         5.9583253161        6.8164530105       19.7788698144
  N         5.7584626185        8.1534600440       19.9108266141
  O         5.9853256964       10.0698589493       18.6419518769
  H        16.8914182806        7.1276756342        5.9513241058
  H        15.8571969222        6.5166386216        7.0456492250
  C        17.6248708624        5.2367404519        6.6835858247
  H         5.4767880716        7.5525643940        0.7355806943
  H         4.3110914768        6.3292804341        0.8190784580
  C         4.1243199795        7.5962070688        2.6537755601
  C        12.4645678956       -0.3734821732       -2.8798900919
  S         5.4271132198        5.8439842970       21.0594101134
  C         5.5805883592        8.8753992952       21.2204945672
  H        17.1018433875        4.5214656413        7.3070731649
  H        17.9087878322        4.6996424897        5.7331351065
  C        18.7239379684        5.7479561092        7.4974776736
  H         4.8138589825        8.1130781773        3.2771695318
  H         3.6149481743        6.7806408987        3.1900556563
  C         3.1467109021        8.7141094141        2.3403779398
  H        12.6405992642       -1.4072036622       -2.8007174619
  C        12.8172099534        0.0523941500       -4.1541668725
  H         5.0503996504        8.3674138967       22.0733202365
  H         4.8711277261        9.6683698730       20.9666189820
  C         6.9693846407        9.4392171317       21.6497470632
  H        18.8819861061        5.2118349919        8.4400592922
  H        18.3879868479        6.7973744583        7.8107841902
  C        20.0200224344        5.7510975640        6.7227485467
  H         2.2290266444        8.3440222517        2.0082608692
  H         3.0340178512        9.2964951780        3.2495742550
  C         3.6828573938        9.7312391817        1.2446445344
  S        13.1729024705        1.6602743537       -4.7542579114
  C        13.1242426613       -1.0566514065       -5.1260686644
  H         7.7178346931        8.6961999434       21.5198662161
  H         6.7815177565        9.7589205565       22.6664207335
  H         7.0965000103       10.2917011282       21.0267782584
  H        20.8231654335        6.2729338409        7.2204098674
  H        20.3209715841        4.7276385689        6.4093591147
  H        19.9096752293        6.2124908999        5.7641164185
  H         4.7075084590        9.9773208398        1.5339199757
  H         3.8331300081        9.3180001827        0.2203263236
  H         3.1997275541       10.6994790607        1.3069219151
  C        13.7141855415        0.8362931558       -6.2585554101
  N        13.6521885630       -0.5371064496       -6.2275669133
  O        12.8281357046       -2.2611501226       -4.9128559572
  S        14.5650211960        1.6924302298       -7.5464687998
  C        13.8254563714       -1.3758107440       -7.3956463298
  H        14.1095690414       -2.4141738975       -7.2820874794
  H        14.8274857060       -1.0831752417       -7.7750514464
  C        12.7858881250       -1.0155726276       -8.4483387269
  H        11.8829314750       -0.4486368924       -8.0641782505
  H        12.4364892980       -1.8075553171       -9.1728069233
  H        13.3438974283       -0.3837630251       -9.1374297037
  H        -3.4289573635       14.4255557310       15.7055251040
  C        -3.1357832000       13.4062833938       15.8354054427
  H        -4.0894900004       12.9841796624       16.1199413751
  C        -1.9728208433       13.2979941432       16.8082034297
  C        -2.8631558709       12.9029998208       14.3648400313
  C        -2.2893200256       13.7399144034       18.2376923021
  H        -1.5867600702       12.2148655164       16.9060596564
  H        -1.1055551784       13.8593201897       16.3630326843
  H        -3.7135038002       12.9133152327       13.7079101797
  H        -2.1145624785       13.5074324422       13.8443018222
  H        -2.4248908112       11.9709503037       14.3722269333
  C        -1.9502067746       12.7224716568       19.3420851924
  H        -3.3421317275       14.0857837382       18.2124591255
  H        -1.8239479315       14.7126640438       18.4544136417
  C        -2.3637729979       13.2261742481       20.7940480504
  H        -2.5325144392       11.8025183446       19.2227820863
  H        -0.9235181876       12.5419444454       19.3768358402
  C        -1.4898850400       12.5461678276       21.9384560621
  H        -3.3931968194       12.9807971665       20.9000600281
  H        -2.2747307999       14.3251084338       20.8905196962
  C        -0.2894396698       13.4067631264       22.3456096123
  H        -2.1412469117       12.3950603494       22.8028221114
  H        -1.1278197260       11.5892996654       21.6160783085
  C         0.8263074558       12.7973534991       23.1585617869
  H         0.1487617313       13.7311001731       21.3684686760
  H        -0.6385431841       14.3706645726       22.7680701383
  C         1.2202454707       11.4308125582       22.5263687351
  C         0.4708624721       12.0275215468       24.4652219356
  C         2.1149764219       13.7344456867       23.3113587894
  C         1.0222227302       10.3162358954       23.2501935823
  C         1.7980916087       11.0946824893       21.2789889265
  C         0.5743663077       10.6747576768       24.5093591256
  C        -0.0195463124       12.6384314775       25.7001744880
  H         2.2906073860       14.3963107780       22.4786233384
  H         1.8749035047       14.4787590284       24.0734526996
  C         3.3591954779       12.9822878227       23.6871728551
  S         1.4775229231        8.8688549862       22.5869855980
  C         1.9511110610        9.7335393430       21.1809677997
  H         2.0385727425       11.8628189058       20.5486656508
  C         0.1284764444       10.0375211907       25.6218190781
  H        -0.1539013302       13.6323726108       25.6724247021
  C        -0.3869666661       11.9964568665       26.7732570051
  H         3.6931500078       12.2824144247       22.9163753135
  H         3.1037520218       12.3285282628       24.4629979335
  C         4.4148463856       13.9979721161       24.1551300222
  C         2.2909560565        8.9827593271       19.9644507603
  C        -0.3875543692       10.6611472999       26.7962104673
  H        -0.0906940513        8.9565175225       25.6128101101
  C        -0.7107864183       12.3474662292       28.0397241627
  H         5.1587238473       13.5222150251       24.7005922614
  H         4.0030223238       14.6276365817       24.9343569115
  C         5.1119302218       14.6711512834       22.9262152537
  C         2.4033468922        7.5577415716       19.7471141594
  C         2.7392508748        9.7478487228       18.7891681623
  C        -0.8599425219        9.9247621658       27.9897586582
  C        -1.1159980530       11.1966475751       28.7483435438
  S        -0.9566079865       13.8614506112       28.7858568040
  H         5.7124706949       15.5127834786       23.1990877046
  H         4.3784222664       15.0632557849       22.2137852991
  C         5.9462782124       13.6756854362       22.1452268542
  N         1.9517179059        6.5349527817       20.6462203829
  C         2.8323721708        7.0561488415       18.5113594915
  C         2.9800914664        9.2211501213       17.4993647543
  H         2.8058044280       10.8222621891       18.8845073459
  C         0.3095478936        9.0545190830       28.6845600942
  C        -2.1213738911        9.0713628343       27.9283415705
  C        -1.4636833967       11.6028000300       30.0428962450
  C        -1.4279078782       12.9866510859       30.1706435554
  H         6.9351814655       14.0704119630       21.8046020655
  H         6.2182796243       12.8631718385       22.7816726464
  C         5.3570807911       13.0650952994       20.8867699809
  S         2.2586674117        5.0954781595       19.9898851609
  N         2.7487492983        5.6422885925       18.5475598820
  C         2.9620446515        7.7724784442       17.3541634177
  H         3.2591273260        9.8913598864       16.7063040321
  H         0.5696624964        8.1081208600       28.2063797428
  H        -0.0692988448        8.9008794494       29.6918069711
  C         1.6919062418        9.7620665020       28.9112847574
  H        -1.9457585534        8.3293200003       27.1623665959
  H        -2.3194632298        8.6170323384       28.8616396500
  C        -3.2686773892        9.9684948402       27.5401456873
  H        -1.6752857955       10.8763354876       30.8488404053
  C        -1.6923509418       13.6634462880       31.4565301558
  H         4.2039623564       13.1673910971       20.9898244804
  H         5.6472527289       12.0790162713       20.6894130794
  C         5.8256814129       13.6893015321       19.5884339770
  C         3.2449222365        7.0312680498       16.1867303210
  H         2.0301506633       10.1079598426       27.9463853505
  H         1.4889419716       10.6605487381       29.5463099778
  C         2.6789615475        8.8636785965       29.7459164362
  H        -3.0397884014       10.4907225757       26.6691217961
  H        -3.5323369310       10.7368482478       28.2156376101
  C        -4.5684357442        9.1586246904       27.2367012099
  C        -1.7123583872       15.1068048771       31.6301496550
  C        -2.0438933357       12.8714653500       32.6683298470
  H         5.0499028187       13.4585629690       18.8895512716
  H         5.9860010221       14.7367065675       19.6438429410
  C         7.1191041006       12.9691671421       19.1507991730
  H         3.1879621421        5.9571667111       16.3098320329
  C         3.5589814993        7.3178406104       14.9056481916
  H         2.9245917507        7.9177361313       29.2261896811
  H         2.2004157742        8.6807155696       30.6919525373
  C         4.0043749182        9.6322258455       30.1431051785
  H        -4.4146919233        8.3867906438       26.4788267321
  H        -4.8454545159        8.7153974668       28.1827504583
  C        -5.7388884862       10.1077446153       26.8705756717
  N        -1.4681955913       16.0169071256       30.6156244243
  C        -2.0751545022       15.7118376362       32.8561150795
  C        -2.2537654484       13.5277753033       33.8821160535
  H        -2.0193134636       11.8178024329       32.6928550282
  H         6.9841830225       12.4953014399       18.1574945330
  H         7.8970211838       13.7260863522       19.0644659826
  H         7.5165660465       12.1789242189       19.7990063341
  S         3.9203795037        8.9210364939       14.2077879847
  C         3.6752481532        6.2461013704       13.9225226841
  H         4.1613525608       10.4973774736       29.5257610706
  H         3.8885091888       10.0082578185       31.1515370414
  C         5.2299305566        8.7189842531       30.1251148077
  H        -5.4103391839       10.8002915762       26.1190462707
  H        -6.0285834909       10.7505908173       27.7428114911
  C        -7.0033153359        9.3716770558       26.3011770366
  S        -1.5623983052       17.4758231220       31.2643806962
  N        -2.0990584461       17.1011937482       32.7318306485
  C        -2.3902316600       15.0154860526       34.0056636713
  H        -2.3118879887       12.9486621100       34.7190861984
  C         4.1594172253        8.0929373678       12.7164003573
  N         4.0605273188        6.7343100880       12.7585941991
  O         3.3040390396        5.0947889501       14.0867850373
  H         6.0850721908        9.3921933698       30.2670387866
  H         5.3240470292        8.2425254404       29.1930870444
  C         5.1988112346        7.5818432552       31.2152444194
  H        -6.7896206362        8.5450452103       25.6028310896
  H        -7.6511492493        8.9124511696       27.0839468362
  C        -7.9427263605       10.3554195149       25.5081070430
  C        -2.6769095195       15.7373693108       35.1669451778
  S         4.6305398330        8.9853963762       11.3230142324
  C         4.0233371624        5.8819107004       11.5511076927
  H         5.5509934114        8.0327988716       32.2169139386
  H         4.1921646186        7.1721620196       31.2307249050
  C         6.0166683999        6.3525210019       30.8636092831
  H        -7.6047896519       10.5414500660       24.4986896559
  H        -7.9255066696       11.2338378381       26.0843906546
  C        -9.3418963501        9.7744864293       25.4613132728
  H        -2.4934853422       16.7714567952       35.1464850660
  C        -3.0879662937       15.3790249907       36.4254800076
  H         4.7392758169        6.2735882749       10.7553099685
  H         4.3815463286        4.9255546478       11.7700788976
  C         2.6414631433        5.8519181255       10.9760657387
  H         6.9563647756        6.5337756659       30.4733701572
  H         5.5555966674        6.0665574440       29.9264918297
  C         5.9305229421        5.2637910794       31.8808516664
  H        -9.9250275443       10.1624297283       24.6343607047
  H        -9.2542737303        8.6744483022       25.4294006636
  C       -10.1878127332       10.1694004542       26.6877556367
  S        -3.7223767680       13.8095030840       36.9081513870
  C        -3.2408583462       16.4542070813       37.4808370196
  H         2.4672736937        4.9769385911       10.4188243876
  H         1.8835786702        5.9936044950       11.7309249901
  H         2.5312830334        6.7111680841       10.3149819225
  H         6.7120138035        5.2336143847       32.6239862342
  H         5.9608876798        4.3264975078       31.3597891012
  H         4.9896099729        5.2645724452       32.4049358244
  H       -10.3571501057        9.2420155246       27.1531772454
  H       -10.9989974361       10.9114246175       26.5032421109
  H        -9.6468908737       10.6642314053       27.4812561048
  C        -3.8515768041       14.6186219537       38.5264519666
  N        -3.6787908740       15.9406837901       38.6240849098
  O        -2.7241787332       17.5158395197       37.3481071072
  S        -4.0725456534       13.6932055330       39.9987391679
  C        -3.5578141994       16.6832479799       39.8907240446
  H        -3.8772704840       17.7378080820       39.6303340555
  H        -4.2445563926       16.4296837900       40.6465202672
  C        -2.1158980043       16.6412594749       40.4690536081
  H        -1.6338585230       15.6847726445       40.6930510717
  H        -1.4276506758       17.2624465177       39.9321745099
  H        -2.1499069556       17.1856169157       41.4320783373
