352
i=
  H         4.1162543233        1.7617351693       11.9372053106
  C         3.4890859747        2.6483654198       12.0855436305
  H         4.2092462945        3.4549730584       12.1079898096
  C         2.7132225698        2.8425755752       10.8262626238
  C         2.7380876108        2.3668367880       13.4027043127
  C         3.6321133649        2.9568904250        9.6622931794
  H         2.0189533799        3.6389142542       11.0765670010
  H         2.1210742622        1.9049486992       10.6909153828
  H         2.1696934288        3.0789169003       13.9067163345
  H         3.5303727978        2.2952041402       14.1926891406
  H         2.1773279141        1.4476238162       13.3625642987
  C         4.3204721907        1.6166214583        9.3082383410
  H         3.0756950943        3.2163927659        8.8081704812
  H         4.2706436327        3.8315572254        9.7319574893
  C         5.3740053695        1.6260657633        8.1909102413
  H         3.5353594107        0.9593780943        8.8646628760
  H         4.7274214106        1.0937304235       10.1282491435
  C         6.6073923004        2.4478638418        8.5092327908
  H         4.9023749161        1.9087624422        7.2381529121
  H         5.7639455479        0.6297171913        8.0166829921
  C         7.9011184265        1.8332329803        8.8457630418
  H         6.8425653566        3.0681872781        7.6430246421
  H         6.3739370182        3.0140158423        9.4077475768
  C         9.2013522185        2.7905741010        8.9321047043
  H         8.1035228175        1.1150207672        8.0840528257
  H         7.7468822836        1.1993999879        9.7714595850
  C         8.8017531320        4.1446208395        9.5778783871
  C         9.5066990932        3.5140833919        7.7126418683
  C        10.3211762819        2.1547988543        9.7570264319
  C         8.8487866703        5.2589146923        8.7711148462
  C         8.4014976366        4.4077395337       10.8924950177
  C         9.3922803246        4.8681598698        7.5269350519
  C         9.8564514882        2.9124654365        6.5111036681
  H         9.9229968482        1.8337527441       10.6968427950
  H        10.6350247933        1.1932912235        9.3306670120
  C        11.5964743439        2.9909763695        9.9226621413
  S         8.4350449269        6.7058652774        9.5371296890
  C         8.1310685708        5.7512250708       11.0035574051
  H         8.2919258190        3.6101872901       11.6254241346
  C         9.8182562013        5.4688014680        6.3842003367
  H         9.9734096343        1.8662655579        6.5459438282
  C        10.1802104307        3.5718429630        5.3062874840
  H        11.2480321414        3.8715603318       10.3855385284
  H        11.8412134824        3.4425459482        8.9501854842
  C        12.6037059954        2.3551219603       10.8590836066
  C         7.5388619410        6.3254687593       12.2361813163
  C        10.2489784255        4.9126017273        5.2365801426
  H         9.6548911048        6.5675794727        6.4260718026
  C        10.5585142900        3.2022102720        4.0057047633
  H        13.5761012502        2.6706105902       10.5872179126
  H        12.6625725004        1.2507788724       10.7061861852
  C        12.2168687162        2.6107675038       12.3347544332
  C         7.5990470352        7.6653441422       12.5676200775
  C         7.1262767345        5.5048082015       13.4058485984
  C        10.7994833758        5.6068763547        4.0109247473
  C        10.8933321282        4.2933732519        3.2082508160
  S        10.7892861195        1.7275320320        3.1856426093
  H        12.6533886183        3.5637860562       12.6456200040
  H        11.1581343454        2.8521470201       12.5026045365
  C        12.5482836470        1.6254348130       13.4613166448
  N         7.9701754792        8.6256450619       11.6199659454
  C         7.3262661204        8.2508502194       13.7804050253
  C         6.7147712676        6.0300351962       14.6208752854
  H         7.0017417949        4.4686331962       13.2415864294
  C        12.2941072012        6.0014591445        4.2215278788
  C         9.9040490461        6.6085672476        3.2590660579
  C        11.3165894402        3.9279874039        1.9212674295
  C        11.3283365718        2.5578982158        1.8241386336
  H        13.5799255357        1.3422721409       13.5227276885
  H        12.0035340428        0.7821536870       13.1761009342
  C        12.0243483568        2.1365321440       14.8652197501
  S         7.9964924177       10.1128069851       12.2418050135
  N         7.5437318174        9.6673262559       13.7921963690
  C         6.9299670045        7.4823973775       14.9253344153
  H         6.2485621798        5.3251281182       15.2771212153
  H        12.3137409718        6.8241736454        4.8730743074
  H        12.7537301537        6.3312590446        3.3310669706
  C        13.2780348049        4.9467928737        4.7650798150
  H         9.4580847835        7.3541014139        4.0012737947
  H        10.4252254710        7.1831925721        2.5075322413
  C         8.6748219419        5.9333498932        2.5357204686
  H        11.4170827062        4.7407469729        1.1798270371
  C        11.7425541004        1.7425160885        0.6291564585
  H        11.8478338536        3.2304294629       14.8660360664
  H        11.1387496429        1.5629749352       14.9177819809
  C        12.8747219734        1.8280117795       16.1017161052
  C         6.7439768197        8.1595434350       16.1681861920
  H        12.8681020744        4.3988143598        5.6313262208
  H        13.5975115576        4.1687345754        3.9997962634
  C        14.5396038264        5.6832518330        5.1556928994
  H         8.1789406216        5.3910242846        3.3173031509
  H         8.8378385739        5.1953776788        1.7729700830
  C         7.6490347761        6.9794582224        1.9809461505
  C        11.8402522390        0.3152923665        0.5041987089
  C        11.8335604792        2.4567708439       -0.6616942667
  H        13.7046817065        2.5371804373       16.1308546854
  H        13.3761279416        0.8148513654       16.1701229650
  C        12.0484349083        1.9629339086       17.4640984732
  H         6.9001688810        9.2516621943       16.2280594897
  C         6.4814131075        7.5640222294       17.3826336501
  H        14.4599138140        6.3163357804        5.9897697165
  H        14.8573907567        6.1595509335        4.1833746888
  C        15.6859399598        4.7231197601        5.5250049376
  H         7.1431170203        7.4643350506        2.7593368979
  H         8.1208908007        7.8086748446        1.5048060830
  C         6.6851076658        6.2843680521        1.0520287472
  N        11.5676196369       -0.5760661600        1.5360629026
  C        12.2255689706       -0.3534178160       -0.6169688559
  C        12.1822281537        1.7586698821       -1.8702329827
  H        11.6996046399        3.5328895432       -0.6990854838
  H        11.0101926546        1.8636406978       17.3401975022
  H        12.3559661123        2.9347920758       17.8701976800
  H        12.3789602864        1.2702589208       18.1820531412
  S         6.1006546654        5.9654895570       17.8024077591
  C         6.4580318459        8.4842817818       18.5204768827
  H        15.2350303614        3.7629621363        5.6596083216
  H        16.3867707158        4.5838365079        4.7367171465
  C        16.3331030364        5.2102028686        6.8421473980
  H         6.2169889782        5.4819966120        1.5737131664
  H         7.1251863100        5.8851610803        0.1392754535
  C         5.7495266306        7.3823379395        0.5220258444
  S        11.6072561253       -2.1366318366        1.0163297106
  N        12.2280784246       -1.7671733627       -0.4886904286
  C        12.3511575996        0.2903051003       -1.9075353574
  H        12.2215759271        2.3173378916       -2.8045842115
  C         5.7979269956        6.5497909273       19.4669145220
  N         5.9525727790        7.8652917385       19.6301240952
  O         6.8134102895        9.6628107465       18.4673007435
  H        16.5199010732        6.2905336620        6.6772724553
  H        15.7522384667        5.2096800338        7.7574066084
  C        17.6798584345        4.5233537730        7.1319604640
  H         6.2771030204        8.3110232077        0.4322383321
  H         5.5605195903        7.1269897480       -0.5165747911
  C         4.5065320138        7.7927326960        1.3795662090
  C        12.5833345875       -0.5239024182       -3.0727032568
  S         5.2678814657        5.7056448913       20.8591638596
  C         5.8143173788        8.5660058017       20.9907037877
  H        17.6165878997        4.2014490363        8.1497027359
  H        17.7572425885        3.6267865211        6.4869143419
  C        18.7992812591        5.5779275730        6.9844897935
  H         4.6472128156        7.1739380184        2.2757094499
  H         3.6021627528        7.3627667328        0.9053441357
  C         4.3422997940        9.2816295863        1.4547698844
  H        12.5286553258       -1.6218727002       -2.9368185868
  C        13.1119631261       -0.1934114168       -4.2896273920
  H         5.0967668697        8.1340679745       21.6694259625
  H         5.4942428040        9.5930493949       20.7347894244
  C         7.1836188048        8.6568457208       21.7403106043
  H        19.5834843683        5.1452642277        7.5853966852
  H        18.6817597396        6.4816758015        7.6031075759
  C        19.1461169811        5.8592159410        5.5307167498
  H         3.4989068791        9.4761457702        2.0224634142
  H         5.1832669861        9.8403075943        1.8670988899
  C         4.1335648359        9.9504683058        0.0694228136
  S        13.9011980664        1.2858086035       -4.7049002428
  C        13.2218676865       -1.2193115886       -5.3259660651
  H         7.9554344546        9.0874919498       21.1073864464
  H         7.4675651441        7.6725249483       22.0536637181
  H         7.1371598903        9.3531595589       22.6152871224
  H        18.7112540747        5.1767668020        4.8484817901
  H        18.6164544220        6.8305182554        5.3515726169
  H        20.1640264562        6.0822160690        5.2954635261
  H         3.1888395810       10.4688839663       -0.0422624075
  H         5.0184419341       10.5587449003        0.0115016055
  H         4.2155341435        9.2695427980       -0.7403672736
  C        14.0883086922        0.6651481379       -6.3400714120
  N        13.8697089329       -0.6517581253       -6.3806644527
  O        12.7603754649       -2.3054239250       -5.0992572160
  S        14.9404492478        1.3812504142       -7.5892054037
  C        14.0733952835       -1.4091312593       -7.5888098673
  H        14.2159240949       -2.4469150086       -7.3249078508
  H        15.0298535860       -1.0987396197       -8.0450831610
  C        12.8106300691       -1.3932680647       -8.4242120903
  H        11.9802632991       -0.7657976662       -8.0857200693
  H        12.4938858580       -2.3919896322       -8.4598644861
  H        13.0150960002       -1.2042572804       -9.5049319453
  H        -2.6227096805       15.2045192353       16.9013301449
  C        -2.9034598919       14.1664816883       16.7892922957
  H        -3.9806410772       14.0213970676       16.9914626718
  C        -2.0446410650       13.3448125794       17.7137543694
  C        -2.7363642356       13.7866757053       15.2731488577
  C        -2.1714883786       13.7727285213       19.1321222757
  H        -2.2725341110       12.3498384254       17.5911671300
  H        -1.0107396888       13.5320419735       17.3960992801
  H        -1.6925992700       13.7042213667       14.9794825231
  H        -3.1008605744       12.7710139298       15.0376397251
  H        -3.3432597995       14.4948940614       14.6191882363
  C        -2.4387596467       12.5610231305       20.0628154379
  H        -2.9614094194       14.5574213077       19.2855097511
  H        -1.2135732468       14.2557547377       19.4483165611
  C        -2.6214030693       13.0552777474       21.5503607035
  H        -3.2250194807       11.9638582967       19.6515727618
  H        -1.5012188369       11.9347141435       20.0349878561
  C        -1.5964737645       12.6272383674       22.5390683577
  H        -3.6540144740       12.9118329613       21.8285962875
  H        -2.4859946619       14.1094818024       21.4750043472
  C        -0.3828719297       13.5164077095       22.5403592703
  H        -1.9747422557       12.5526942359       23.5554110906
  H        -1.2687273373       11.6575489550       22.1963399255
  C         0.7684239347       12.9121087457       23.3603801325
  H        -0.0292460403       13.6631857979       21.5151101487
  H        -0.5830592964       14.4975959997       22.9443357233
  C         1.0519893175       11.5745794361       22.7086925999
  C         0.3442617390       12.1991703132       24.6067352061
  C         2.0489637384       13.8793737450       23.5725353584
  C         1.0400853657       10.4659381920       23.5397373225
  C         1.5840109610       11.2790748498       21.3844002532
  C         0.4733831543       10.8280168540       24.7483238902
  C        -0.1493126949       12.8817636204       25.7132109632
  H         2.2581306860       14.3659504442       22.5524462139
  H         1.8163926858       14.7324461400       24.2188272352
  C         3.3039571868       13.0817366589       24.0777740638
  S         1.5963618647        9.0557144593       22.8083887917
  C         1.8283051554        9.9185029816       21.2573794120
  H         1.6975987310       12.0939179757       20.6753912866
  C         0.1471165786       10.2176583728       25.8696252466
  H        -0.2065473116       13.9235990535       25.6245713363
  C        -0.4499578127       12.2690547420       26.8389989454
  H         3.5772974042       12.3978156573       23.2986428728
  H         3.0930446884       12.5429340233       25.0121299843
  C         4.4651152653       14.0600822123       24.3442385511
  C         2.1646354850        9.2765690030       19.9516790610
  C        -0.4602173371       10.9351389317       26.9444849941
  H         0.2636771364        9.1451419394       26.0032387885
  C        -0.8082176172       12.7136299072       28.0516709111
  H         5.2740700467       13.4013602962       24.6772704025
  H         4.2703503290       14.8497273073       25.0905179962
  C         4.9258329387       14.8177330920       23.0986736981
  C         2.2524682267        7.8666204207       19.7204188005
  C         2.5174863710       10.0689128683       18.7700799787
  C        -0.7967822513       10.2867030299       28.1521065007
  C        -1.0155463339       11.6076755246       28.8789573354
  S        -0.9707378705       14.2147242956       28.8082799943
  H         5.5350933064       15.6354065589       23.3947002463
  H         4.1028343035       15.2347824688       22.5660277770
  C         5.7228575009       13.9982891613       22.1190826584
  N         2.2479933217        6.9370306632       20.7456138661
  C         2.4116250704        7.2678749306       18.4856905607
  C         2.8687390777        9.5478003214       17.5832376292
  H         2.7745257397       11.1376054352       18.9177659075
  C         0.2597954749        9.4143527687       28.8926877414
  C        -2.1933660970        9.5052129593       28.0596600953
  C        -1.4677786009       11.9806977848       30.1365664346
  C        -1.3455094360       13.3358103311       30.3062445792
  H         6.6045415961       14.6269272312       21.7991342720
  H         6.0949151755       13.1793677859       22.5550491149
  C         5.0010024243       13.5574966883       20.7998325391
  S         2.0750909834        5.4692298619       20.0547599238
  N         2.2956003511        5.8713661272       18.4792692665
  C         2.7602696063        8.0782465406       17.3366892987
  H         3.2849170219       10.1493275372       16.8659432807
  H         0.5077144317        8.5467587536       28.3204930387
  H        -0.1523828463        9.0686912082       29.7857356903
  C         1.5561541717       10.2596588024       29.1479447553
  H        -2.1426152162        8.8128208193       27.1922264700
  H        -2.4434798877        8.9940244355       29.0003455502
  C        -3.3525606783       10.4739204208       27.8401860258
  H        -1.7942534917       11.2899348650       30.8713885571
  C        -1.6055580591       14.1069628686       31.5618658684
  H         4.6242577026       14.3960632610       20.2567687457
  H         4.1656382356       12.9718430402       20.9700869753
  C         5.9353552255       12.7560454597       19.9200130804
  C         3.0350166869        7.5150231815       16.1020120100
  H         1.8866143044       10.5920044614       28.1887791143
  H         1.5173963612       11.1905945341       29.6828426809
  C         2.7832096165        9.4743314153       29.6157162201
  H        -3.1786108962       11.1633641040       27.0259966714
  H        -3.3905562345       11.1259743153       28.7110584731
  C        -4.6158594064        9.6761660064       27.4334587844
  C        -1.6837406299       15.5135303574       31.7139336190
  C        -1.8927527650       13.2433951332       32.7751138410
  H         6.5210414272       12.1571511987       20.5810954679
  H         5.5173116990       11.9121112145       19.3756256696
  C         6.7725777647       13.6105859681       18.9351623485
  H         2.7827254487        6.5002649485       16.1107250052
  C         3.4387840911        7.9508972904       14.8479852441
  H         3.0182443607        8.7158332606       28.8850397451
  H         2.5208514367        8.8757429120       30.5827126036
  C         4.0314156044       10.3241868532       29.7596225989
  H        -4.3506209078        8.7787029888       26.7448834340
  H        -5.0402588946        9.2017467803       28.3309872938
  C        -5.6523573918       10.5607509007       26.6190998151
  N        -1.4462674246       16.4615418793       30.6918319903
  C        -1.8242350105       16.1267742922       32.9941863543
  C        -2.0258212423       13.8869606953       34.0552066923
  H        -1.9312094966       12.1446953274       32.7161538590
  H         6.0526575657       14.1655196726       18.2704181547
  H         7.3868018196       14.3614144762       19.4007282309
  H         7.3682258278       12.8821626023       18.3381013659
  S         3.8703010823        9.5022051475       14.4670728463
  C         3.5478368268        6.9332218035       13.7479728479
  H         4.1424930270       10.9730544188       28.8266594136
  H         3.9100527736       11.0114282365       30.5810357173
  C         5.3592915261        9.5973952259       29.9604770442
  H        -5.0372314375       11.2247064564       25.9520429864
  H        -6.0736591188       11.3850486176       27.2643616868
  C        -6.8139680171        9.8332522518       25.9135337249
  S        -1.6148270861       17.8936582923       31.3863592472
  N        -2.0314492451       17.4912729859       32.8987297832
  C        -1.9401973754       15.3760003040       34.1609346676
  H        -2.3595644341       13.3096158388       34.9014841221
  C         3.9414926981        8.8779682709       12.7710356791
  N         3.9555573931        7.5263655818       12.6315732037
  O         3.3515299340        5.7338629272       13.8977832615
  H         6.0973454830       10.1268904837       30.4950038665
  H         5.8252046383        9.2814604017       28.9958048173
  C         5.0726347221        8.3211894737       30.7473556446
  H        -6.3867815915        9.4124760017       24.9937978218
  H        -7.1680408112        8.9985337747       26.5192115097
  C        -7.9604740941       10.7635484467       25.4468227952
  C        -2.3477712747       16.1259370266       35.3122394089
  S         4.4071811962        9.9038834082       11.3763959461
  C         4.0396521776        6.8720152050       11.2472090860
  H         4.5483433333        8.5930811496       31.6660304501
  H         4.4977509638        7.6344429854       30.2427321652
  C         6.3655556594        7.6248813109       31.1366031968
  H        -7.7760046413       11.2283261676       24.4945656178
  H        -8.1447459078       11.5808370815       26.1901766691
  C        -9.1938443946        9.9500251839       25.2533114099
  H        -2.0432721596       17.1507315909       35.2440089246
  C        -2.8913359356       15.8042329110       36.5113994687
  H         4.6346895373        7.4375785337       10.4685833200
  H         4.6341422221        5.9554741026       11.3388752390
  C         2.5889661022        6.7137448218       10.6496039058
  H         6.2221827183        7.2658505434       32.1492961027
  H         7.1742464280        8.4159151704       31.1824030110
  C         6.7269031292        6.4514737714       30.1376269772
  H        -9.7391815102       10.2935522465       24.4052053971
  H        -8.8324646734        8.9607757790       24.9347170469
  C       -10.0120422512        9.9473093132       26.4643642791
  S        -3.4676842934       14.3191863307       37.0510752146
  C        -3.0685229623       16.9063948527       37.4787291487
  H         2.3827310763        5.6724585348       10.8052287700
  H         1.8341749466        7.2916611619       11.1439897359
  H         2.5072912729        6.8337026094        9.5861158610
  H         7.7676665543        6.0092843763       30.3505304808
  H         6.6523801717        6.7869681848       29.0962599152
  H         5.9581369395        5.7097529660       30.1602615884
  H        -9.9462211673       10.9389453341       26.9048157927
  H        -9.5610367433        9.1631986969       27.0889651419
  H       -11.0589296942        9.7504687383       26.3183228205
  C        -3.8881038336       15.0761115946       38.5992598030
  N        -3.6200250760       16.4243704347       38.6249710335
  O        -2.5923922865       18.0216514171       37.3483442894
  S        -4.8124525396       14.4585730858       39.9602776559
  C        -3.7448213743       17.2979940807       39.8422931142
  H        -4.0470731507       18.3654526343       39.6119997126
  H        -4.5075104822       16.9706293445       40.5726837805
  C        -2.3840073132       17.1950312248       40.5835085722
  H        -1.4913351616       17.6179206077       40.1059059435
  H        -2.3428219439       17.8092294721       41.5072505574
  H        -2.2392069351       16.1961252067       40.8950451934
