352
i=
  H         2.5942770280        1.7555331249       13.3376516704
  C         3.5978117696        2.1609583006       13.0775183857
  H         4.3894390205        1.4293608972       12.9036431021
  C         3.4024743343        2.9728158453       11.7809254733
  C         3.9043916669        3.2126075007       14.0995282338
  C         4.6541642993        3.2805931363       10.9399575578
  H         3.0623655882        4.0059439511       12.0800410234
  H         2.5344378577        2.6868257605       11.1881648522
  H         4.2646716963        2.7293158118       15.0357549230
  H         2.9980907765        3.7728379548       14.2564241681
  H         4.7042841560        3.9100421434       13.8541135552
  C         5.0184217086        2.0107822918       10.2400179360
  H         4.5045133741        4.1923450472       10.2488143522
  H         5.3701567881        3.6683953033       11.6351398846
  C         5.5203528388        2.1593405181        8.7938910860
  H         4.0982562717        1.5006385831       10.1290754951
  H         5.6764562518        1.3518665853       10.7694822187
  C         6.8921608316        2.8638269019        8.6977053076
  H         4.6900636265        2.5131603355        8.0861007773
  H         5.7153652695        1.1968955207        8.3989460694
  C         8.0473923261        2.1202569803        9.2732000487
  H         7.1101029792        3.0185219966        7.6355692701
  H         6.7659223836        3.8373586939        9.1274459485
  C         9.2186034243        3.0124230898        9.5466040039
  H         8.3674180817        1.3863143264        8.6193356505
  H         7.6728578212        1.5917368311       10.1986841412
  C         8.8686502756        4.3507483259       10.2431139871
  C         9.7399305566        3.6595526898        8.3053115231
  C        10.3455630784        2.2433112118       10.2643117866
  C         9.1923221607        5.4835110865        9.4577598570
  C         8.1995723669        4.7086233641       11.4033658150
  C         9.7568617785        5.0333375131        8.2549905594
  C        10.2899979628        2.9814442959        7.1584234890
  H        10.0634606538        1.4750803591       10.9785019970
  H        10.8405234199        1.5769603856        9.4980651369
  C        11.5771367952        3.1083289605       10.7595128928
  S         8.8655365442        6.9780364604       10.2548194443
  C         8.2244939971        6.0588912897       11.6004734963
  H         7.7125957350        3.9900644762       12.0672632440
  C        10.1792740246        5.6196121683        7.1263207794
  H        10.3069912321        1.8845430874        7.1106532752
  C        10.5999752570        3.6212831950        6.0151678558
  H        11.1506151884        4.0697032091       11.1639516885
  H        12.2254094927        3.3969367454        9.9225904452
  C        12.4223778324        2.3706536670       11.7737231160
  C         7.7441706952        6.8128804850       12.8594620548
  C        10.5179924084        4.9356112747        5.9105073728
  H        10.1254939204        6.6898333418        7.0350080126
  C        10.9889615795        3.2210816727        4.7297699364
  H        13.3369297211        2.9338221016       11.7654435547
  H        12.6826681360        1.2949620882       11.5601644300
  C        11.6677366168        2.4006893386       13.1301616718
  C         7.7505322076        8.1851412977       13.0931609448
  C         7.3258375279        5.9996638694       14.0558952956
  C        10.8667794877        5.6257196765        4.6191216719
  C        11.0923384828        4.2856933340        3.8620840476
  S        11.3557685092        1.7813320986        3.9162195129
  H        11.4310177566        3.3653359721       13.3841316541
  H        10.7486333041        1.8162472986       13.0862765502
  C        12.5718915745        1.8098088141       14.2378469728
  N         7.9801509191        9.1960293021       12.1500727396
  C         7.4559924732        8.7559261583       14.3545197893
  C         6.9796647109        6.6106198597       15.3064511707
  H         7.4382849844        4.9163464199       14.0057139169
  C        12.1685378761        6.4224878234        4.7657328360
  C         9.6852767707        6.5004939349        4.2222301710
  C        11.4234004997        3.9326756035        2.5051010667
  C        11.6406291006        2.5898386061        2.4181317461
  H        13.6217971253        2.0548877349       13.9888436947
  H        12.4431862404        0.7699035273       14.2421097186
  C        12.2904277968        2.2425361185       15.7003002690
  S         7.9859571223       10.6744893032       12.8156744161
  N         7.6629149118       10.1039014724       14.3682104478
  C         7.1798966032        8.0413386513       15.5375357519
  H         6.6724954076        5.8855183833       16.0603406803
  H        11.9911114885        7.2990930122        5.4251521809
  H        12.2958442599        6.8218516678        3.7692084487
  C        13.3495090153        5.5688782869        5.2386396289
  H         9.1526376562        6.8724472630        5.0572694412
  H        10.0053036481        7.3345965795        3.6739062846
  C         8.6103652874        5.6808198975        3.4841938482
  H        11.4888677293        4.6901508151        1.6818538658
  C        11.9588896098        1.8836429279        1.1047998606
  H        12.4155864670        3.2666719522       15.8313875597
  H        11.2785467589        2.1298887140       16.0157225445
  C        13.0400076700        1.6040845582       16.7420923386
  C         7.0327944876        8.7019439893       16.7895557352
  H        13.2885465162        5.4134377753        6.3331391845
  H        13.4589928209        4.5648677327        4.8644238226
  C        14.7181791419        6.2158391754        4.9013143177
  H         8.1787013561        4.8185822653        4.0772673232
  H         8.8509291314        5.3854564571        2.4814180659
  C         7.3944682790        6.5959805055        3.3910201843
  C        11.9145739265        0.4626681721        0.9655686563
  C        12.0454209919        2.5860895428       -0.1652351456
  H        13.9233530507        1.0051597561       16.4281970278
  H        12.4143990245        0.8867137339       17.3104405991
  C        13.5468655867        2.7187840465       17.7177278365
  H         7.1672412335        9.7882608977       16.8765554313
  C         6.6825048014        8.1479163127       18.0317932783
  H        14.7701096172        7.2704746226        5.2571461477
  H        14.7760631248        6.1722578118        3.8065468233
  C        15.9026471543        5.2992376034        5.3566694012
  H         7.2258974032        6.9254189264        4.4406817531
  H         7.6425670827        7.4736980755        2.8206329309
  C         6.2501765655        5.9922282731        2.7123725463
  N        11.6040382086       -0.3991932964        1.9777054642
  C        12.1152859953       -0.1245984648       -0.3005078920
  C        12.2527349415        2.0111387041       -1.4742862726
  H        12.0798518152        3.6230616562       -0.0542070853
  H        14.2804518019        2.2777239238       18.3968380934
  H        12.7979144476        3.1078664208       18.4338360573
  H        14.1013928973        3.4888647132       17.1661342656
  S         6.5174588582        6.5424074394       18.4863571201
  C         6.4997277454        9.1237244350       19.1328988953
  H        16.0340156969        5.4297402559        6.4071883808
  H        15.6083032509        4.2155836706        5.2727669841
  C        17.1859398979        5.7660854226        4.7809925778
  H         5.8757548027        5.1161842716        3.2933158305
  H         6.5450020525        5.5979798968        1.7323336383
  C         5.0099705885        6.9054094142        2.5999000404
  S        11.5161191787       -1.8764410367        1.3373511642
  N        12.0739133339       -1.5401227251       -0.1611171440
  C        12.4274820544        0.5162507592       -1.5102010400
  H        12.4339340666        2.5508161333       -2.3968022252
  C         6.1586513547        7.1328423163       20.1146539770
  N         6.1511872628        8.4835782947       20.2383205328
  O         6.4890520483       10.3490890263       19.0041212644
  H        17.2653438584        5.4414890219        3.7285325317
  H        17.1775923365        6.8215634813        4.7932591661
  C        18.3572195557        5.3358056888        5.6478895969
  H         4.1569016546        6.2213847737        2.3432953246
  H         4.7989355786        7.3510666110        3.5362874673
  C         5.1211418485        8.0606433329        1.5914583489
  C        12.6850871314       -0.3378047351       -2.6490047900
  S         5.7047488383        6.1011124897       21.5067590193
  C         5.8905645268        9.1695836840       21.4652252172
  H        17.9724400824        4.4185071613        6.1463562473
  H        19.2478306387        5.1850303295        5.0410088767
  C        18.5831469628        6.3531485858        6.7749789544
  H         4.9960244582        7.8132327269        0.5342037101
  H         6.1191246213        8.4405787420        1.6699583048
  C         4.2220505159        9.2649854740        1.8102429067
  H        12.4893982323       -1.3651790605       -2.5946977502
  C        13.2050639911       -0.0080052688       -3.8971157374
  H         5.1593943446        8.6586659748       22.0269772212
  H         5.3457972007       10.1090741817       21.1463384769
  C         7.1629160006        9.4585483752       22.1893832964
  H        17.6462794646        6.7269570046        7.1480362763
  H        19.2113709114        7.1830776961        6.4497557099
  C        19.2683542128        5.7588081553        8.0031633216
  H         3.1706264989        8.8691124305        1.7672107384
  H         4.4838272328        9.7922869406        2.7427769617
  C         4.3577571611       10.2072789574        0.5733825158
  S        13.7534615033        1.5668677270       -4.5161465080
  C        13.1916218339       -1.0161551612       -4.9570941380
  H         7.4224873205        8.6152511594       22.9045439912
  H         7.2024175528       10.4011946312       22.7984044803
  H         7.9974808149        9.5300562868       21.4660212964
  H        18.6144632083        4.9742912112        8.4302500534
  H        20.2216751755        5.2755077987        7.8039664200
  H        19.4252129444        6.6088945112        8.6752960113
  H         3.9195394870        9.5843472888       -0.2191867650
  H         3.8903142909       11.2262948868        0.6759706594
  H         5.4077003461       10.1653860211        0.3735785493
  C        14.0830012672        0.7574496642       -6.0338706507
  N        13.8551908783       -0.5751074248       -5.9994521492
  O        12.8493953135       -2.2036066160       -4.7630408899
  S        14.8524063494        1.5644174799       -7.3821320400
  C        14.0214175256       -1.4169077144       -7.2102084106
  H        14.1758420842       -2.4693475921       -7.0096294279
  H        14.8388500715       -1.1395900207       -7.8956107448
  C        12.6637772092       -1.3285485808       -7.9096687194
  H        12.7448394974       -1.9665816663       -8.8202303390
  H        12.5461151477       -0.3008598117       -8.2209168714
  H        11.8304808286       -1.7654898196       -7.3278758886
  H        -2.2128538802       15.4442668244       15.7278104312
  C        -2.7396488805       14.8562775099       16.4831863890
  H        -3.5907242577       15.4161697862       16.9372598163
  C        -1.9085109583       14.6381314740       17.7258659613
  C        -3.2435952727       13.5501934863       15.8201286129
  C        -2.5971471920       13.9087217404       18.8873826088
  H        -1.0206238257       14.1087289513       17.4153149849
  H        -1.5142872799       15.6005540993       18.0468425368
  H        -2.3220272574       12.9939661689       15.7022201308
  H        -4.0425664781       13.0228286030       16.3277486569
  H        -3.6558103675       13.6376780310       14.7863268514
  C        -1.6058005337       13.4401431394       19.8718457160
  H        -3.1909551317       13.0331163009       18.5871917240
  H        -3.3528740995       14.5962206624       19.4100162575
  C        -1.9256214759       13.7722104640       21.3530318675
  H        -1.4585727736       12.3696929134       19.7866090276
  H        -0.6404178724       13.7902417799       19.6156271330
  C        -1.0068059603       13.0886980652       22.3618784046
  H        -2.9414358701       13.4939692653       21.5191860933
  H        -1.8540545709       14.8698995519       21.3917125373
  C         0.2322592017       14.0309361758       22.6368511579
  H        -1.5496159163       12.8653002565       23.2630034756
  H        -0.8044337843       12.1012996177       22.0835145261
  C         1.4028568386       13.2838922176       23.2895337099
  H         0.6223071987       14.5006783651       21.7675679272
  H        -0.0033564725       14.9339371606       23.2409204523
  C         1.7645441190       12.0381693177       22.4766003018
  C         1.0533072553       12.5528391342       24.5012664731
  C         2.6845687414       14.1207912446       23.4573942155
  C         1.5681778320       10.9217754107       23.3010592756
  C         2.3539805911       11.7425265074       21.2466066024
  C         0.9881102481       11.1915850210       24.5414112816
  C         0.5627547013       13.1378973398       25.7097868030
  H         2.9495685563       14.6329713692       22.5288846558
  H         2.3903859260       15.0169016616       24.0809614090
  C         3.9462271499       13.4886437085       24.0658340398
  S         2.0665590343        9.4770168961       22.5520738804
  C         2.3876264366       10.3523846102       21.1144394251
  H         2.5047192700       12.5324820744       20.5315656618
  C         0.6894413642       10.4989557056       25.6467618615
  H         0.5610380106       14.1909912515       25.7897435752
  C         0.2064313794       12.4125577265       26.8224691555
  H         4.1701717885       12.5873722320       23.5382343806
  H         3.7402197223       13.1907019870       25.0945049679
  C         5.2292810307       14.3706965974       24.1688594403
  C         2.7213202014        9.7747423370       19.7360983800
  C         0.2169969033       11.0746436400       26.8251013890
  H         0.8875255431        9.4275992874       25.6636483250
  C        -0.2386528262       12.7547473944       28.0915415108
  H         5.9384065042       13.9929146040       25.0188427230
  H         4.8784229993       15.3431104713       24.4663555155
  C         6.0033973927       14.5917003674       22.9212302989
  C         2.6850020542        8.3583300626       19.4332876260
  C         3.0336119159       10.6009592952       18.5948061727
  C        -0.1170777142       10.3287358480       28.0477897270
  C        -0.4052618650       11.6043786813       28.8691191750
  S        -0.4513711086       14.1546177223       28.9943968994
  H         6.7939164918       15.3342682135       23.0850487943
  H         5.2957321273       14.9403159537       22.1069024301
  C         6.7236245864       13.3050725673       22.4883847461
  N         2.5441338536        7.3595854151       20.3830865166
  C         3.0157748187        7.8075887790       18.1673543832
  C         3.4215533260       10.0519014683       17.3433598384
  H         3.1658578069       11.6357998456       18.7134669277
  C         1.0483135398        9.6713193326       28.6939463170
  C        -1.3755949374        9.4446488136       27.9330368249
  C        -0.7685057155       11.9090508875       30.1964941911
  C        -0.8625088472       13.2655915787       30.3595556354
  H         7.8035447562       13.1758709985       22.9262536286
  H         6.2333846867       12.5470492342       23.1467519305
  C         6.7520854818       13.0189732466       20.9487080344
  S         2.5153633419        5.9578745980       19.5703679901
  N         2.9590461312        6.4657450807       18.1112813331
  C         3.4344871344        8.5858915258       17.1080409348
  H         3.6122101520       10.7942237418       16.6021560834
  H         1.5041968318        9.0187535363       27.9515891913
  H         0.7851042334        9.0332460491       29.5471718393
  C         2.2444851557       10.6677245516       29.1688066366
  H        -1.0921981953        8.5406625892       27.3976104496
  H        -1.5831435173        9.1305314727       28.9773027095
  C        -2.6402067348       10.0603180986       27.3063870655
  H        -0.8949459028       11.1290247115       30.9359101058
  C        -1.1720434052       13.9504755746       31.6307351711
  H         5.7930911096       13.0650565391       20.5798237441
  H         6.9818025655       11.9491827377       20.8530281872
  C         7.6740634289       13.8555519254       20.0491234318
  C         3.6293504033        7.9890697759       15.7761742452
  H         2.7491951497       11.0989269601       28.2871270793
  H         2.0042037270       11.5560134622       29.7947252240
  C         3.3250157724        9.9326418861       30.0479988806
  H        -2.4191335529       10.5509634099       26.3827146793
  H        -3.0230320759       10.8575830263       27.9121193311
  C        -3.6837952093        8.9626956835       27.1169343153
  C        -1.3803652838       15.3282506353       31.8393002635
  C        -1.3921441541       13.1140510501       32.7868748573
  H         7.3530625625       14.8417207314       19.7618427046
  H         8.6439032775       13.8840547939       20.5750219756
  C         7.8703716616       13.1924305902       18.6315047794
  H         3.5706084285        6.9080173118       15.7197345177
  C         3.9064120032        8.5146609962       14.5236510672
  H         3.6605197789        9.0543192353       29.4130406045
  H         2.9179278137        9.5708775046       31.0152503401
  C         4.5152496972       10.7929194092       30.3127026966
  H        -3.3718882301        8.3357221507       26.2363770731
  H        -3.7715473704        8.3743336353       28.0300358320
  C        -5.0405681342        9.5078432711       26.9462615239
  N        -1.1958505209       16.3237883271       30.8776895219
  C        -1.8612331950       15.8964037274       33.0424105393
  C        -1.7821716727       13.6602952675       34.0383172810
  H        -1.3152274996       12.0140858003       32.7481875996
  H         7.0186970075       12.9562900141       18.0529998036
  H         8.4311355513       13.9969774740       18.1026539233
  H         8.5073625271       12.3286230293       18.5335385762
  S         4.2271982450       10.1568192417       14.1581302769
  C         3.9033559415        7.5709024227       13.4099974420
  H         4.4121410344       11.6573074111       29.6714270697
  H         4.4497229110       11.2529598865       31.3121825896
  C         5.8274603322       10.0306680352       30.1677250763
  H        -5.3042617302       10.2835597133       27.6809518804
  H        -5.7036402472        8.6990283011       27.2462873773
  C        -5.4573152776       10.0299754384       25.5618303478
  S        -1.2881839468       17.7731650042       31.5956582165
  N        -1.8217584672       17.3075614664       33.0369610702
  C        -2.0753703830       15.1075903177       34.2011528912
  H        -1.9126549607       13.0619153124       34.8890719263
  C         4.3916561193        9.6403034420       12.5070958754
  N         4.2699353122        8.3210524526       12.3403063975
  O         3.6286488553        6.3635821171       13.4277081163
  H         6.6015113517       10.7579423478       30.3805765126
  H         5.8790670718        9.7765596194       29.0685761608
  C         5.8940036179        8.7375751639       31.0688565154
  H        -4.8095470225       10.8926359291       25.3471928717
  H        -5.2520442522        9.3127140697       24.8126622867
  C        -6.9494275056       10.4155023089       25.5067893595
  C        -2.4647568629       15.6940626272       35.3779793323
  S         5.1633444982       10.5483423566       11.2089277045
  C         4.4947404018        7.6333220085       11.1207504552
  H         6.5574372167        8.9134058113       31.9554524409
  H         4.9011681038        8.4591038612       31.4679074639
  C         6.6203229303        7.7360093232       30.2033621012
  H        -7.2382341398       10.8901192610       24.6145358444
  H        -7.0776124461       11.1259672370       26.3125477951
  C        -7.9780219236        9.3148969135       25.8133924631
  H        -2.4032037535       16.7163026698       35.2382717909
  C        -3.0164906142       15.1890919277       36.5294231565
  H         5.1130303164        8.0615195911       10.3055636822
  H         5.0744239966        6.7241889698       11.2471746372
  C         3.1541951099        7.2108388287       10.5994191918
  H         7.4239601519        8.0400200764       29.6058582526
  H         5.9548280982        7.2956023460       29.4616245065
  C         6.9345192382        6.5308133732       31.0221079083
  H        -7.9324348187        8.5947476331       25.0286321439
  H        -7.8252981317        8.8169561082       26.7690435855
  C        -9.4731257168        9.7924280531       25.7875327691
  S        -3.7706451598       13.6603464853       36.7415929049
  C        -3.1503198951       16.0825042703       37.6471114209
  H         2.7782777236        7.6833967660        9.7010021837
  H         3.3415674340        6.2244669643       10.2356349580
  H         2.3055493161        7.1920203815       11.2687772386
  H         7.4015949531        6.9087546923       31.9459922892
  H         7.6822223002        5.9454474020       30.5260741787
  H         6.1735548236        5.8197793720       31.3856260795
  H        -9.7516745959       10.0174301140       24.7243036817
  H        -9.6760320829       10.6474092816       26.4325659622
  H       -10.2602517087        9.1287881199       26.0520283173
  C        -4.0410334555       14.2334918844       38.4325401981
  N        -3.7766127695       15.5344314660       38.6504681829
  O        -2.6848021593       17.2336846244       37.6035825819
  S        -4.6017892752       13.2001501234       39.7188765497
  C        -3.9121650035       16.2750132394       39.9307394155
  H        -4.2019197253       17.2985982422       39.8341431291
  H        -4.6472458887       15.8839715783       40.6573382493
  C        -2.5357114516       16.1745581382       40.6580161972
  H        -1.7899489319       16.7479014533       40.1711758702
  H        -2.6473493676       16.5650694658       41.6237876594
  H        -2.2591109025       15.1985800728       40.8379739631
