352
i=
  H         4.8627598626        2.0802563504       12.4081887297
  C         4.0357601630        2.7591351841       12.4646735412
  H         4.5197542982        3.7074441055       12.4189102086
  C         3.0558113887        2.6743174095       11.2792800824
  C         3.3042482836        2.5756202703       13.7334646402
  C         3.5676936954        2.9734757286        9.8949844033
  H         2.3347492310        3.4663166755       11.5497339920
  H         2.4955348898        1.7654031861       11.2383092631
  H         4.0265704644        2.5242712108       14.5146295411
  H         2.8177735030        1.6629296447       13.6044525935
  H         2.6565116099        3.2940489761       14.2116172545
  C         4.5169648619        1.7348521794        9.4550855495
  H         2.7454748604        3.1259584706        9.2163402870
  H         4.1341982577        3.8139530153        9.9845480413
  C         5.2736436634        2.0781831343        8.1920535622
  H         3.8079786319        0.9514064393        9.2294828456
  H         5.1989683222        1.4510446429       10.2267390530
  C         6.5131569041        2.9193769083        8.3471933532
  H         4.7298240691        2.5799747278        7.4518971079
  H         5.3905471037        1.1481383997        7.6393399178
  C         7.7602078632        2.0540020498        8.8626061002
  H         6.7768981083        3.3107329368        7.3678334943
  H         6.3085922237        3.7556421769        9.0304543693
  C         9.0292449134        2.9627878376        9.0775875674
  H         8.1654190621        1.1637672542        8.3841609049
  H         7.3736956941        1.6175373177        9.8016369835
  C         8.7165295850        4.2718968418        9.8404248224
  C         9.4384470200        3.7393653706        7.8660541496
  C        10.1502165796        2.4155723043        9.9574053963
  C         8.9226525906        5.4294491681        9.0908919988
  C         8.1089343422        4.6797916970       11.0700988524
  C         9.4197702496        5.0949076584        7.8338213276
  C         9.9143168355        3.1775495691        6.6620784289
  H         9.7515506796        2.2359394433       10.9470622454
  H        10.3072252128        1.3857865549        9.5585724296
  C        11.4977547844        3.2670915503       10.0456872822
  S         8.5508744897        6.9430244743        9.8730982631
  C         8.0039411291        6.0790712820       11.2512600489
  H         7.6900289558        3.9074335677       11.6846826742
  C         9.6993718908        5.7452798338        6.6729568640
  H         9.8472068455        2.1448917292        6.5197688766
  C        10.2106349829        3.8589319230        5.5424155648
  H        11.2819857808        4.3453295066       10.1483488358
  H        11.9271299769        3.1637349145        9.0628057027
  C        12.4302281894        2.7197474538       11.1780536870
  C         7.4290255887        6.7290816222       12.5049795672
  C        10.0796175218        5.1522197954        5.4641475929
  H         9.7914377666        6.7916348858        6.6536331900
  C        10.6032666846        3.5430986177        4.2460489476
  H        13.4826611355        2.8210369772       11.0082152609
  H        12.2738095686        1.6346772487       11.0924405951
  C        11.9564538044        3.1071890416       12.6341058829
  C         7.4972740261        8.0901899048       12.8057642697
  C         6.8526964566        5.9034423779       13.5667891117
  C        10.5007169472        5.9113045993        4.2010228831
  C        10.8768394079        4.6440370112        3.4523967160
  S        10.8350416081        2.0265410400        3.4426489478
  H        12.6113080071        3.8444469349       13.0531106572
  H        10.9924040425        3.6950304330       12.6656275481
  C        11.9426180109        1.8921295426       13.5365069213
  N         7.9359532376        9.0099601293       11.8723406189
  C         7.1018899043        8.6457125491       14.0180540011
  C         6.5621411915        6.4174058097       14.8533418122
  H         6.5250640246        4.9281721613       13.3191326392
  C        11.7404298311        6.7851728021        4.6155474240
  C         9.3940936381        6.6831427574        3.4917742950
  C        11.2132910263        4.2602800432        2.1444084840
  C        11.2231615233        2.8990282303        2.0144749855
  H        12.8468561017        1.2798325017       13.4948894644
  H        11.0989993516        1.3371670371       13.2350285732
  C        11.6783818072        2.0917461382       15.0150068172
  S         7.7739034333       10.4943851772       12.5306281747
  N         7.1213266912       10.0389947511       13.9343259730
  C         6.7334660206        7.8556450542       15.1324536795
  H         6.1443657178        5.7362298798       15.5205336632
  H        11.5079303187        7.2868945030        5.5597763527
  H        11.9987952730        7.6009488175        3.9118863264
  C        13.0485403433        5.9996721902        4.7919792164
  H         8.8575856866        7.3205159033        4.2400153396
  H         9.8484974914        7.3429896222        2.7378736136
  C         8.2873181928        5.8793828190        2.9307289851
  H        11.5255437493        5.0717927315        1.4546190594
  C        11.5395608764        2.1097306585        0.7840478037
  H        10.8047641234        2.6379381418       15.2117068877
  H        11.3645185413        1.2035036394       15.5070356212
  C        12.8480778351        2.6776674692       15.8018316457
  C         6.4521851817        8.5095789734       16.3319725682
  H        12.8739141919        5.1036391797        5.4351569002
  H        13.2946026155        5.6467830171        3.7584135041
  C        14.2382680323        6.7380251469        5.2807149522
  H         7.7389952764        5.4151455787        3.7244521085
  H         8.7900177723        5.0895367516        2.3976807456
  C         7.4249884399        6.6855366599        1.9770158998
  C        11.6259794697        0.7154187444        0.6171018537
  C        11.7997791918        2.9001118548       -0.4687167222
  H        13.0717865040        3.6422322044       15.4525201515
  H        13.7383530596        2.0471932573       15.5748494482
  C        12.6653893377        2.8276248736       17.3252116981
  H         6.3775093068        9.5872238173       16.1945563125
  C         6.2752007542        8.0052167942       17.5833417570
  H        14.0058580618        6.7762436304        6.3487668796
  H        14.2271483550        7.6953296450        4.7370593229
  C        15.5828219298        6.0646126894        5.2395465677
  H         7.0683874714        7.5949316849        2.4607268564
  H         7.9028339495        6.9891676908        1.0722563636
  C         6.2177166701        5.8522803691        1.6329186268
  N        11.3312819760       -0.1880635541        1.6002790185
  C        11.9499048145        0.0741573113       -0.5689490651
  C        12.0190479231        2.2089680281       -1.6691970198
  H        11.8047195487        3.9814230326       -0.5106264039
  H        12.1975196277        3.7486278940       17.4177407349
  H        13.6055830743        2.9761533198       17.8759204838
  H        12.1350829522        2.0141883310       17.8464645680
  S         6.1245241507        6.3570517355       17.9736636739
  C         6.0179243893        8.9662479255       18.6467470177
  H        15.5001948621        5.0372288300        5.3953401746
  H        16.2316331011        6.2292172967        4.3268494139
  C        16.4451042961        6.5191675777        6.4246481164
  H         5.9461496866        5.2497877378        2.5208723133
  H         6.4468660534        5.0773355842        0.8984601114
  C         4.9957535031        6.7338930618        1.3533742160
  S        11.5973065759       -1.7219018791        1.1024575517
  N        11.8872478320       -1.3525194122       -0.4260462602
  C        12.1836976839        0.7662722520       -1.8138975635
  H        12.1738985091        2.8328737650       -2.5069932571
  C         6.0630507747        6.9009671814       19.6015946962
  N         5.8014071249        8.2316455755       19.7421532469
  O         5.8328687988       10.1660811522       18.4783096649
  H        16.9789686885        7.3794912637        6.2050341712
  H        16.0504788656        6.6895155133        7.3900987149
  C        17.4626561292        5.4589728613        6.6363734379
  H         5.2812068642        7.5725505389        0.6742420274
  H         4.4217014567        6.2075804943        0.6598996087
  C         4.0174304815        7.0774620079        2.5171552540
  C        12.4509989881       -0.0622029348       -2.9828658177
  S         5.7375538560        5.8458055259       20.8866328938
  C         5.7059583021        8.8407853952       21.0534834617
  H        16.8663321238        4.6337338350        7.0607392666
  H        17.9329412009        5.1676489207        5.7219599473
  C        18.4884493528        5.7859607635        7.7203250814
  H         4.5638661356        7.0159570527        3.4668842544
  H         3.2106521016        6.3383492260        2.5638996937
  C         3.3969334316        8.4199650812        2.3189884237
  H        12.1008440293       -1.0315658200       -3.0386791686
  C        12.9356134493        0.2116450552       -4.1834519901
  H         5.0950410943        8.2292890106       21.6825749983
  H         5.2124477291        9.8073261377       20.9159896131
  C         7.0701172707        9.0550210490       21.7704330160
  H        18.7387743123        4.9034479194        8.3292907950
  H        18.2173814894        6.4722093145        8.4396608167
  C        19.7827043253        6.3924869092        7.0711235638
  H         2.7840708153        8.4398728501        1.4291657147
  H         2.6144129125        8.3993282044        3.0313970059
  C         4.2861445454        9.6594623389        2.3239941945
  S        13.4906492609        1.7311275947       -4.6085062019
  C        13.0034868987       -0.8620031737       -5.2157649772
  H         7.8807035249        8.5194663185       21.2250642999
  H         7.0238732051        8.6150161543       22.7594926221
  H         7.4329322891       10.1203430213       21.8964320286
  H        20.0375739570        5.8834533039        6.1038064248
  H        19.7762725247        7.4542792905        6.9764534753
  H        20.6546642704        6.2477953845        7.6702230097
  H         4.7294366808        9.8492168206        3.2921903253
  H         5.1713205766        9.5501251045        1.6751377860
  H         3.6963407106       10.5589003242        2.0491185658
  C        13.8151712379        0.9905681625       -6.1785607701
  N        13.6146582430       -0.3434437434       -6.2677928878
  O        12.8357521609       -2.0701554963       -5.0323335443
  S        14.6265746875        1.7617752657       -7.5751315912
  C        13.7981421483       -1.1632431107       -7.4306438702
  H        13.9748249079       -2.1823036123       -7.1599140831
  H        14.7840011456       -0.9092005824       -7.8287608913
  C        12.7494266011       -1.0997909477       -8.5013479510
  H        13.0898022331       -0.7554735855       -9.4253488067
  H        11.9578947119       -0.4122280696       -8.4102054065
  H        12.1714351685       -2.0722367811       -8.6956178898
  H        -3.6985296223       14.8927875511       15.8474567738
  C        -3.4812893971       13.8559712776       16.0910660231
  H        -4.3641749511       13.2695854820       16.4274445958
  C        -2.3606687715       13.7784099346       17.1544598487
  C        -2.9340722223       13.2587365864       14.8675311821
  C        -2.7898849013       13.8032519655       18.6120925842
  H        -2.0030369121       12.7477438982       17.0333391000
  H        -1.6285882276       14.5945578405       17.0206609344
  H        -3.5400028478       13.4856311462       14.0287816254
  H        -1.9262150287       13.7211985693       14.6750309609
  H        -2.7095764058       12.1648292796       14.9280776074
  C        -1.7348669120       13.3207375558       19.6154805662
  H        -3.7249265073       13.1923436742       18.6871500983
  H        -3.2141970127       14.7415462350       18.9824084423
  C        -2.3039761254       13.5271290500       21.0199038924
  H        -1.4674564850       12.2719293996       19.4517229480
  H        -0.7882688647       13.8584391545       19.4857900157
  C        -1.3256871202       12.9619893439       22.0801385570
  H        -3.2140490162       12.9275613920       21.0131774217
  H        -2.4703529598       14.6393960722       21.0923406450
  C        -0.0995851139       13.8723507041       22.2914336730
  H        -1.9571009318       12.6840719541       22.9653097046
  H        -0.9377932396       11.9875923337       21.7345353646
  C         1.0980196439       13.1947445764       23.0620444773
  H         0.2215743875       14.2419990068       21.3232182511
  H        -0.4649749671       14.7343669427       22.8394540967
  C         1.3991372287       11.8363416603       22.3346460868
  C         0.6391677117       12.4938723409       24.2402275417
  C         2.3400351887       14.0498320348       23.3414137564
  C         1.0748242848       10.7297369931       23.1413031844
  C         1.9301907101       11.4848080493       21.1057038777
  C         0.5363432456       11.1247630741       24.3415395273
  C         0.2463291141       13.1614208391       25.4324875024
  H         2.2932990770       14.7940671574       22.5388950586
  H         2.2069600068       14.6174473222       24.2291247935
  C         3.6873917666       13.3345077679       23.3919322032
  S         1.5472354958        9.2444110872       22.4745937858
  C         1.9513229932       10.1183666126       20.9564615417
  H         2.2144462065       12.2659649154       20.4598131184
  C         0.2418945232       10.6136168717       25.5647995745
  H         0.1602011846       14.2420309855       25.3889021428
  C        -0.1661517548       12.6184997565       26.5938331580
  H         3.8178486417       12.8240185606       22.5063932910
  H         3.6821876941       12.5592299700       24.1824772552
  C         4.9075116207       14.2001360460       23.7522389604
  C         2.4007747372        9.4376152668       19.6696430507
  C        -0.1557617732       11.2609115422       26.7776308532
  H         0.4650830482        9.6080455226       25.6718763527
  C        -0.5776465998       13.0034369227       27.8187903359
  H         5.6221867666       13.4768751144       24.1444646891
  H         4.7429135677       15.0008966962       24.4447731932
  C         5.4099392595       14.8930983442       22.4965573238
  C         2.2540786900        8.0231742769       19.4272406905
  C         2.8767263726       10.2612784098       18.5358466560
  C        -0.5175922251       10.5563944395       28.0516257708
  C        -0.8072625100       11.9287543344       28.6824531616
  S        -0.8580976306       14.5265010933       28.6550425389
  H         5.9081111372       15.8304193044       22.8617121194
  H         4.5332869939       15.1559592889       21.9550002042
  C         6.2374797060       14.0005397108       21.5696381176
  N         2.1179068087        7.0528871615       20.3511072779
  C         2.5170898531        7.4840161403       18.1498867000
  C         3.0907871156        9.7282745014       17.2868985644
  H         3.1119779328       11.3212129970       18.7070734557
  C         0.5960447013        9.7477962557       28.8080331903
  C        -1.6828250202        9.6435725081       27.8633748324
  C        -1.0929709751       12.3383270550       29.9773026583
  C        -1.1393673459       13.7304168613       30.1506678679
  H         7.1374839816       14.5933587240       21.3240073856
  H         6.6542495691       13.1152668927       22.0901812457
  C         5.5944440139       13.5555617511       20.2369188302
  S         2.1966895409        5.5628455919       19.6741391061
  N         2.5244521645        6.1005795962       18.1796558049
  C         2.8865578046        8.2436829130       17.0426008300
  H         3.4546701656       10.4056372153       16.5523110508
  H         1.1332269691        9.2758028372       28.0016098507
  H         0.2361783667        8.8521181953       29.3445509637
  C         1.6694314436       10.6725109747       29.5084924535
  H        -1.5123622815        8.9172518639       27.0446951838
  H        -1.9330616006        9.0446717456       28.7193896845
  C        -2.9367170210       10.3781204183       27.5191388114
  H        -1.3697636040       11.5162186688       30.7156913811
  C        -1.5072752268       14.4911784632       31.3961227298
  H         4.4703236923       13.7585337168       20.2770831444
  H         5.5523484307       12.3948803794       20.1015674406
  C         6.1846984473       14.0672401016       18.9780513495
  C         3.0413460010        7.6208146179       15.7603172216
  H         2.1520789425       11.4159486916       28.9023276454
  H         1.2876377045       11.3533435328       30.2036223857
  C         2.7728560993        9.8422257965       30.1323966555
  H        -2.7922804823       11.0737792099       26.6615231471
  H        -3.2530334105       11.1201139097       28.2636948752
  C        -4.0950648503        9.4817592679       27.2202177744
  C        -1.5534887699       15.9455553480       31.5259419746
  C        -1.8722350269       13.7433761744       32.5732650420
  H         5.7472437482       13.5394400676       18.0996924587
  H         5.9146745170       15.1561860961       18.8184275855
  C         7.7370505861       13.7871382142       18.9557882964
  H         2.9017718784        6.5460683791       15.7831317301
  C         3.3667251312        8.0970960389       14.4913000168
  H         2.9610435125        9.0216322292       29.3773412894
  H         2.4545535324        9.3194237896       31.0559997922
  C         4.0896330135       10.5468070666       30.5014137359
  H        -4.0336493920        8.9001597066       26.3434646604
  H        -4.1941777715        8.8472091602       28.0802847726
  C        -5.5398921902       10.0065635287       27.2132762134
  N        -1.3500774982       16.8353906238       30.5099934008
  C        -1.7821991196       16.5198520113       32.7389299973
  C        -2.1246469405       14.3990997483       33.7972388844
  H        -1.9346382403       12.6820783060       32.5440627592
  H         8.0950928420       13.3034341519       17.9672390848
  H         8.2806120388       14.7433716372       18.9414010745
  H         8.0883174852       13.1874287539       19.8005624532
  S         3.8867195708        9.6348658993       14.0275558740
  C         3.3671161011        7.0780483214       13.3973948107
  H         4.1502894959       11.3662959319       29.8628938982
  H         3.8654810730       10.9194712498       31.4934915438
  C         5.3926236442        9.7813424530       30.4345011432
  H        -5.6383434867       10.5677702972       28.1239438208
  H        -6.1621688392        9.1546293405       27.2460701288
  C        -5.8326050057       10.9265583329       26.0330900704
  S        -1.6717544767       18.2876355212       31.0784820572
  N        -1.8815820594       17.9137349959       32.6215452968
  C        -2.1228187666       15.8895027061       33.9091935704
  H        -2.3816524503       13.7389023385       34.6226833900
  C         4.0164499880        9.0242912172       12.3833677769
  N         3.8476245978        7.6953925046       12.3245728023
  O         3.2446856000        5.8690135534       13.5377937984
  H         6.1041016107       10.4242195876       30.9592045406
  H         5.7435769317        9.6588498728       29.4187334615
  C         5.3668111597        8.4377781089       31.1722166500
  H        -5.3112954211       11.8642755987       26.0283024096
  H        -5.5022454938       10.5095946627       25.0621964330
  C        -7.2885058000       11.2927795211       26.0080072504
  C        -2.3301740115       16.6647519792       35.1384791313
  S         4.6752568299        9.7705892821       11.0027887805
  C         3.9903970158        6.9142064975       11.0459792731
  H         5.4857647562        8.5084573121       32.2491233192
  H         4.4224854403        7.9371647198       31.0059656246
  C         6.4217713389        7.5720240143       30.7202037733
  H        -7.4491542784       12.3496881494       26.0383269693
  H        -7.7213217363       10.9714861552       26.9128869631
  C        -7.8992253694       10.7516301460       24.7507648979
  H        -2.2530606175       17.7168763010       35.0091607947
  C        -2.7196597316       16.3053972103       36.3901062327
  H         4.9130859238        7.0290888717       10.5312530916
  H         4.0834592533        5.9128985504       11.3256222209
  C         2.7455678275        7.1075523846       10.1300873897
  H         7.4649699219        7.8738233619       31.0268717088
  H         6.4153821687        7.6111649294       29.6329620483
  C         6.1462620184        6.0920074116       31.1024245609
  H        -8.1356815855       11.6399286442       24.0234650120
  H        -7.2767652845       10.0377839639       24.1800332979
  C        -9.1479742485       10.0339827881       25.1098920446
  S        -3.1702525030       14.7718799190       36.8617716714
  C        -2.8752026404       17.4194353209       37.4051944883
  H         2.1719495170        6.1537986628       10.2013940324
  H         2.1506954106        7.8922711322       10.5187586102
  H         2.9675308974        7.2862293302        9.0439126328
  H         5.2632848019        6.0377758664       31.8407065606
  H         6.9831256753        5.6254183641       31.6544105534
  H         5.8958615573        5.6597115919       30.1881719136
  H        -9.5684469225       10.3904091597       26.0192204215
  H        -8.8653993278        8.9301952689       25.2207760997
  H        -9.9385949979       10.1161263028       24.3666197989
  C        -3.5269433109       15.5025054105       38.4190107387
  N        -3.4286683044       16.8690298653       38.4980755717
  O        -2.5944890243       18.5862101919       37.2872338034
  S        -4.1678660701       14.5654406590       39.7400861930
  C        -3.6992605865       17.7389449171       39.5941082812
  H        -4.0219763727       18.7018132870       39.3899461143
  H        -4.5607687252       17.4105382860       40.0779484094
  C        -2.4512203381       17.7776324478       40.4448635257
  H        -1.5457555104       17.4754006279       39.9093728382
  H        -2.2456256971       18.8783544867       40.7676854824
  H        -2.4970383529       17.3246684309       41.4326126349
