352
i=
  H         4.5299473911        1.3334439048       13.0375727516
  C         4.0799444270        2.3086268882       13.1373911203
  H         4.8076545085        3.0828968062       13.2841073885
  C         3.4095942135        2.5149432878       11.7453199520
  C         3.2342483608        2.0956996162       14.3787699491
  C         4.3477961920        2.8684575523       10.6298524765
  H         2.6946877346        3.3501592682       11.8479542712
  H         2.8210387879        1.6535682289       11.5538121506
  H         2.2443964228        1.9363735866       14.0360420953
  H         3.2230743136        2.9894229617       15.0096098471
  H         3.5293632085        1.1826853109       14.9284320469
  C         5.0655526197        1.5802719764       10.1807653132
  H         3.6798353184        3.2333650390        9.8505832176
  H         5.0014277901        3.6366051858       10.8432013917
  C         5.8967320130        1.7436913919        8.9263501152
  H         4.2955779679        0.7912215065        9.9321789744
  H         5.7513924748        1.1346858492       10.9211300659
  C         7.2559345729        2.6459758709        8.9789019237
  H         5.2826498442        2.1494134808        8.1497687406
  H         6.0094396045        0.6991881648        8.7355898918
  C         8.3975380556        1.9864120249        9.7741115222
  H         7.5501573672        2.8198475103        7.8858939593
  H         7.0653269957        3.6661695903        9.3727975070
  C         9.6340192637        2.8587463525        9.8530333156
  H         8.6676311071        1.0109997229        9.3413829020
  H         7.8973955575        1.7218724693       10.7119426173
  C         9.3378884120        4.1903683083       10.5057038349
  C        10.0433252713        3.5231943445        8.5440956584
  C        10.8487588619        2.2441246814       10.5315644149
  C         9.5446807339        5.2735928859        9.6589058222
  C         8.7519372009        4.5931273975       11.6902640877
  C        10.0196067218        4.8999156588        8.4198169820
  C        10.4331835411        2.8973362644        7.3640445320
  H        10.5598825377        1.5624351466       11.3241241210
  H        11.3356292157        1.6912305186        9.7661156575
  C        11.8575530070        3.2742282384       11.1914798288
  S         8.8150785286        6.7397381292       10.1462997323
  C         8.5094401233        5.9683565393       11.6961752016
  H         8.5915792595        3.8665561184       12.4627929429
  C        10.2752097771        5.4939078976        7.2297630453
  H        10.4315622666        1.8302661207        7.3006302137
  C        10.7831654600        3.4752579106        6.2021362110
  H        11.3451672972        3.5788166274       12.0947949203
  H        12.0310495130        4.1932382960       10.6337587933
  C        13.2929177334        2.6541471357       11.3380159333
  C         7.8672854649        6.6031578933       12.9244471668
  C        10.6587319322        4.8303752461        6.0619429412
  H        10.2336206453        6.5768117777        7.1766507643
  C        11.0925878291        3.0126375374        4.9536424565
  H        13.8766020679        3.5514755977       11.2256845164
  H        13.4379191402        1.9524012340       10.5424821877
  C        13.3022856555        2.0084105152       12.6441926654
  C         7.7065323342        8.0286957592       13.1524135637
  C         7.5071705882        5.6924408992       14.0630110643
  C        10.9566073168        5.4897143276        4.7519956798
  C        11.2306970604        4.0582137763        4.1159744786
  S        11.3978103939        1.4731015172        4.2562691441
  H        12.5626233412        1.2547278714       12.7154486005
  H        14.2567560491        1.4889793200       12.6288992750
  C        13.3675835403        3.0173774972       13.8649270796
  N         8.0489149707        8.9760984239       12.1973059400
  C         7.3296694892        8.5921242458       14.3663493225
  C         7.1393638384        6.2968957351       15.2919823111
  H         7.4375201358        4.6161421039       13.9663060615
  C        12.3159980536        6.2733581359        4.8496276386
  C         9.9011454552        6.3303202721        3.9992618429
  C        11.6648585504        3.6538899319        2.8061890101
  C        11.8307102128        2.3000829525        2.8100810864
  H        13.3631310982        4.0747202877       13.6697164861
  H        14.3141742807        2.7643633421       14.3602466034
  C        12.2916990007        2.7974184443       14.8109929537
  S         7.9493286909       10.4146390297       12.8768478074
  N         7.5000745161        9.9505647118       14.3572753182
  C         7.0536958523        7.7908594438       15.4865407589
  H         6.9818839368        5.7088024756       16.1505823338
  H        12.2016465514        7.0751163471        5.5679911440
  H        12.3956243540        6.8260951486        3.8642405244
  C        13.5567212940        5.4840749602        5.3179485982
  H         9.7373683595        7.2515254030        4.5970719579
  H        10.3119699007        6.6692469751        3.0353799874
  C         8.6128741075        5.6809814860        3.5997075238
  H        11.7784841027        4.3239411506        1.9841732016
  C        12.0500220954        1.5367535029        1.5227677228
  H        11.8162988031        3.6717667620       15.2189794473
  H        11.4772742173        2.3193713374       14.2229477880
  C        12.6161180891        1.8565167776       15.9940093494
  C         6.8983415137        8.4884363400       16.7198457460
  H        13.2266821975        4.8633378088        6.1872151971
  H        14.0315084005        4.8365851690        4.5419546297
  C        14.7206419670        6.3547807715        5.7039570923
  H         8.0240991986        5.2883365302        4.4184551208
  H         8.8052336549        4.7826822129        3.0703703828
  C         7.8538693364        6.5948643930        2.6348548566
  C        12.1693167428        0.1549603254        1.3177120504
  C        12.2344596293        2.2684370334        0.2358871569
  H        13.0189994189        0.8911469397       15.6258813965
  H        11.7439921147        1.5397625014       16.4442025824
  C        13.3581941851        2.3654761565       17.2152490852
  H         6.9137070985        9.5677254448       16.6957784939
  C         6.5845635180        8.0220025634       17.9911344305
  H        14.3120077559        7.2213035208        6.2731194517
  H        15.1804309412        6.8134467240        4.7960911152
  C        15.6519123093        5.6104951723        6.6176161185
  H         8.0895587425        7.6124306716        2.8504436537
  H         8.2703755569        6.3348004493        1.6441590152
  C         6.4396437414        6.2023424072        2.5315788172
  N        12.0195794527       -0.7515701596        2.4014558168
  C        12.4564539453       -0.5104280385        0.1588595938
  C        12.3643799628        1.6217188963       -0.9671612410
  H        12.2460671923        3.3340097077        0.3092080037
  H        12.8404168346        3.1484682213       17.7462799668
  H        14.3191661231        2.7918460707       16.8860079994
  H        13.5987592234        1.5593405100       17.9447611468
  S         6.1545149273        6.4325534434       18.5131914422
  C         6.6690460665        8.9785821124       19.0951606757
  H        15.5995399332        6.2289814463        7.5242038894
  H        15.3451990243        4.6322460230        6.8926296659
  C        17.0032111209        5.4354055190        6.0470751031
  H         6.1302934981        5.5806376487        3.3919663350
  H         6.4131631322        5.5481679619        1.5641491570
  C         5.5750115097        7.4925284277        2.5801253335
  S        11.9284428669       -2.2866992012        1.7884647313
  N        12.3209669143       -1.8784827115        0.2091531099
  C        12.5573889164        0.1631459243       -1.0693002682
  H        12.3350722544        2.2864450648       -1.8209975682
  C         5.8970928940        7.1136718961       20.0871590463
  N         6.1834153360        8.4451414142       20.1981018007
  O         7.0025246359       10.1742950857       19.0004814921
  H        16.8331661253        4.8685288006        5.1772988173
  H        17.5027689638        6.3084111950        5.6883184159
  C        18.0517698371        4.8143047420        7.0880438462
  H         4.6672937619        7.2358128124        3.2285768896
  H         6.1347624428        8.3697798903        3.0639728056
  C         5.3132366405        7.9856162563        1.0987068935
  C        12.8727670186       -0.5416635723       -2.2832561506
  S         5.3940868241        6.2749312500       21.5565116221
  C         6.2443289166        9.2217985023       21.3753264317
  H        17.3673803232        4.4176849404        7.8222846207
  H        18.5074781283        3.9502462595        6.6379859060
  C        19.1152485928        5.7667046762        7.7222164452
  H         5.3122150638        7.2188389824        0.3804417099
  H         6.0829109263        8.7322650341        0.8519500014
  C         3.9372985067        8.6898468115        1.0220776040
  H        12.5951632321       -1.5543670600       -2.2116013507
  C        13.4548524573       -0.1216752907       -3.4631082745
  H         5.4223718031        8.7780865828       21.9185328799
  H         5.9531953538       10.2219617318       21.1482029248
  C         7.4991684374        9.0941458824       22.1651821324
  H        19.1225954208        5.4936634686        8.7651386715
  H        18.6446667805        6.6884631438        7.5908939472
  C        20.3971350757        5.7183539397        6.9232745586
  H         3.7241371110        8.8862169792       -0.0607315091
  H         3.1800766836        8.0687192723        1.4511023992
  C         3.9496754772        9.9593201548        1.8070180966
  S        13.9630464231        1.4591084909       -3.8865742322
  C        13.4363404579       -1.0877204461       -4.5925693159
  H         7.4182378412        8.5262384597       23.0512481221
  H         8.0223814317       10.0897650614       22.3670626804
  H         8.2872555556        8.5852321843       21.4918816862
  H        20.2630680530        5.9453548218        5.8879914454
  H        21.0757741591        6.2774159701        7.5056782183
  H        20.7059900315        4.7030109657        6.9783451583
  H         3.0498535559       10.1856456013        2.2776149642
  H         4.6641599750       10.0374674829        2.5942886712
  H         4.2694870333       10.7566663896        1.1549810587
  C        14.2504376376        0.8029308810       -5.5354538758
  N        14.0447016465       -0.5449768598       -5.6593978298
  O        13.2304158368       -2.2710877888       -4.4249149448
  S        15.0717225270        1.6584612646       -6.8702131706
  C        14.3921259832       -1.3418790457       -6.9053347224
  H        14.6506546170       -2.3406351834       -6.5258474186
  H        15.1266578294       -0.8457683236       -7.5068386397
  C        13.1469284020       -1.5312111073       -7.7656268093
  H        13.2881688913       -1.8340102469       -8.7898028784
  H        12.6095310202       -0.6129792691       -7.8854917479
  H        12.3857896411       -2.1770246242       -7.2428200632
  H        -3.4097462970       14.9600814594       16.8923680697
  C        -3.1657692674       13.8036404031       16.9330766702
  H        -4.0166016786       13.4227747398       17.4671885335
  C        -1.8318006329       13.8510492537       17.6633756063
  C        -3.1276190813       13.1725527097       15.4979748269
  C        -1.9454355154       14.2052464765       19.1517926282
  H        -1.4634668091       12.8669769805       17.6107327143
  H        -1.1613142859       14.5019668016       17.0678634593
  H        -3.1268487159       13.9576492671       14.7408369785
  H        -2.3018521892       12.5300857664       15.3292543375
  H        -4.0129305663       12.5664329998       15.3872989877
  C        -2.1879884429       12.9507164601       19.9884950580
  H        -2.7066634819       14.9534193837       19.4269601577
  H        -1.0010222987       14.6565619593       19.5444606930
  C        -2.3852453250       13.1543376481       21.4564263407
  H        -3.0620956856       12.4754324229       19.6035433591
  H        -1.3834091925       12.2471830350       19.7490089902
  C        -1.2707304939       12.6620690139       22.4319401625
  H        -3.2796971419       12.6111100482       21.7493175425
  H        -2.6776801938       14.2421960044       21.6097978122
  C        -0.0768183173       13.5783737086       22.4516229199
  H        -1.6469088295       12.6099013664       23.4399969329
  H        -0.9513937815       11.6248851054       22.1753985297
  C         1.1809691328       13.0833743952       23.1688703238
  H         0.2674552361       13.8445907123       21.3653496899
  H        -0.3779916074       14.5311793759       22.9661667501
  C         1.7528022590       11.7415617307       22.6294045845
  C         0.7637567013       12.3918757421       24.4806777295
  C         2.3243222280       14.1786699227       23.3621049913
  C         1.4098140876       10.6651287648       23.3994032453
  C         2.3225117893       11.3105860832       21.3989711000
  C         0.8846237179       11.0731172399       24.6047223703
  C         0.1601662953       13.0314160149       25.5659965583
  H         2.5570843813       14.5641997979       22.3467363879
  H         2.0466833942       15.0593187852       23.9270901430
  C         3.6783268498       13.5404502237       23.8855829684
  S         1.9093551596        9.1542959602       22.7145619677
  C         2.4762341465        9.9338809308       21.3130682353
  H         2.5948246178       11.9537005455       20.5651721939
  C         0.4950429261       10.4884625506       25.7400690494
  H         0.0259704078       14.0846935804       25.4371983752
  C        -0.1450644369       12.4314870987       26.7669801561
  H         4.1254823412       12.8118425965       23.2044809210
  H         3.4335833169       13.0004197500       24.7902611316
  C         4.7738390950       14.4870208327       24.1908589377
  C         2.8757584234        9.2402108407       19.9831978044
  C         0.0152793611       11.1137239670       26.8756565116
  H         0.6045622908        9.3446313161       25.7704915928
  C        -0.5074303569       12.8815791499       28.0318116303
  H         5.5788033300       14.0287271196       24.7899870689
  H         4.2816024905       15.1884833418       24.8559150390
  C         5.6306391537       15.1665877380       23.1048092265
  C         2.7262699064        7.8712249410       19.7445763034
  C         3.4129624839       10.0878758189       18.8250911284
  C        -0.3702301374       10.4684095336       28.1368386806
  C        -0.6813509519       11.7623120192       28.8273942638
  S        -0.6653679614       14.3297241055       28.8533995352
  H         6.1207428022       16.0277289843       23.5173884609
  H         4.8536911696       15.5835829946       22.4059094256
  C         6.7250687793       14.2988440278       22.4501865805
  N         2.1979450853        6.9894024846       20.7104018129
  C         2.8908013878        7.2985677902       18.4798765372
  C         3.6043250334        9.4807971521       17.6120185199
  H         3.5269044285       11.1163182096       18.9090960316
  C         0.7499608268        9.7252793719       28.9089103053
  C        -1.6265356469        9.6042169553       28.0105270739
  C        -1.0813115677       12.1721349956       30.2096217086
  C        -1.0055298378       13.5175034510       30.3339407765
  H         7.7019094446       14.7847704480       22.5597197452
  H         6.8044063947       13.3180139286       22.9866035872
  C         6.5130952755       13.9589843997       20.9723671256
  S         1.9811473514        5.5953319070       19.9573811586
  N         2.5866734902        5.9403881743       18.4724110011
  C         3.4162980125        8.0372396876       17.3536912307
  H         3.8800418311       10.0301445780       16.7668822142
  H         1.1487605869        8.8561956918       28.3409797272
  H         0.2914534686        9.2001223104       29.7510085147
  C         1.8749651552       10.5659776135       29.3690616124
  H        -1.4357772292        9.0010893420       27.1596648716
  H        -1.7371263309        8.9905150286       28.9203314284
  C        -2.9039313354       10.4670152791       27.8625674783
  H        -1.2669268935       11.3188426960       30.9541151773
  C        -1.2301893049       14.3845891310       31.5154197828
  H         6.2355614769       14.8051073817       20.3628061029
  H         5.6571046307       13.2460147563       21.0079546033
  C         7.7134139130       13.3805122826       20.2277891368
  C         3.4477546496        7.4320240229       16.0701578351
  H         2.1476680453       11.4238007417       28.6964471799
  H         1.4753014073       10.9867036137       30.2764994276
  C         3.0799057189        9.7516236802       29.8406126655
  H        -2.7152193708       11.3038484157       27.2197605395
  H        -3.2299506840       10.9031368886       28.8375323707
  C        -4.0871667533        9.7065613868       27.1576242622
  C        -1.4334095402       15.8228669234       31.5083024042
  C        -1.5272301593       13.6559986421       32.7464381037
  H         8.6589992755       13.8214196371       20.4746469110
  H         7.8210400343       12.3191247254       20.4069932710
  C         7.4420291354       13.2952268645       18.7217835408
  H         3.3671174583        6.3152791698       16.0582324464
  C         3.7149305511        7.8953966444       14.7669002245
  H         3.4822903376        9.1673331545       28.9911261452
  H         2.8140990797        9.0682531881       30.5734224189
  C         4.1991219798       10.6604938891       30.3170289794
  H        -3.8425614178        9.3573317500       26.1600686425
  H        -4.2753062891        8.8405177762       27.8518426231
  C        -5.3144834771       10.6793042614       27.0329115972
  N        -1.2796916873       16.7242409198       30.4517283321
  C        -1.8205921483       16.4884158449       32.6446192279
  C        -1.7738781797       14.3513705472       33.8922636149
  H        -1.3022753062       12.6509119329       32.8545046367
  H         6.4831211975       12.9538077700       18.4822462493
  H         7.5476692810       14.2825717212       18.1959716396
  H         8.1977484320       12.7303178216       18.1269537659
  S         4.1119545287        9.5596927147       14.2869643529
  C         3.9233575541        6.8864697568       13.7236303673
  H         4.4084968182       11.4436990212       29.5978594534
  H         3.7970541752       11.0769920111       31.2452011433
  C         5.5447530585       10.0241058792       30.6632529202
  H        -5.0160148100       11.6428333785       26.5077014264
  H        -5.7238964555       11.0682324840       27.9658504538
  C        -6.4164889644        9.9700067918       26.1527447804
  S        -1.2859737273       18.2317688532       31.0447618004
  N        -1.9066331839       17.9016810491       32.4723526907
  C        -2.0642752999       15.8194238696       33.9011697806
  H        -1.7958875590       13.9090075496       34.8253081583
  C         4.4030136052        8.8658572849       12.6536457055
  N         4.2663065316        7.5285560485       12.5668189057
  O         3.8610470432        5.6286026891       13.8928480376
  H         6.1245260770       10.7822057668       31.2347885178
  H         6.0557893250        9.9053686621       29.7682282395
  C         5.5018557737        8.7603792508       31.5547764775
  H        -5.8812441884        9.6614101829       25.2449508042
  H        -6.9585708417        9.1663579856       26.7063002727
  C        -7.4991161452       10.8900764373       25.6277911909
  C        -2.4870233579       16.5854085843       35.0182519383
  S         4.7310944269        9.7906914998       11.2460559092
  C         4.4076528365        6.8214757919       11.3191591095
  H         6.2623436675        8.7160716425       32.2790194897
  H         4.5470123059        8.7051239576       32.0843816648
  C         5.5020735702        7.4538491125       30.8402151618
  H        -7.0680625531       11.6156677314       24.9801620368
  H        -7.9101395080       11.4970088485       26.4650667346
  C        -8.6194773933       10.1392543720       24.8093597390
  H        -2.6582342837       17.6646894673       34.8078839147
  C        -2.7789888436       16.2641280596       36.3422521163
  H         4.9818301352        7.2872849173       10.5599590507
  H         4.9407597039        5.8850494485       11.4909207716
  C         2.9989270729        6.6621178490       10.7222976202
  H         4.5940353086        7.3582385912       30.2238892825
  H         5.4701635822        6.6703246954       31.4925341847
  C         6.8450765336        7.2764713857       29.9729407443
  H        -8.8579452947       10.6588505889       23.8292299930
  H        -8.1290591414        9.1405957018       24.4872240637
  C        -9.8868522791        9.8155178853       25.6079336862
  S        -2.9289929292       14.6283088564       36.9471042615
  C        -3.2099213948       17.3092458801       37.2620836542
  H         2.9015382037        5.6905306453       10.2474702003
  H         2.1483285859        6.7904035762       11.3729608160
  H         2.8527367190        7.3865071355        9.8945043559
  H         6.9269794863        6.1910224389       29.8170790430
  H         7.6994700951        7.7674167955       30.4713846545
  H         6.7047461509        7.8249174165       29.1096261030
  H       -10.2039581916       10.7176851443       26.1752032600
  H        -9.7363545663        8.9616648134       26.2497403107
  H       -10.5962588302        9.4929986474       24.8202257618
  C        -3.5082757875       15.4357974557       38.3874369304
  N        -3.6182111225       16.8008023213       38.4185957462
  O        -3.2261868639       18.5372816188       37.0086278114
  S        -4.1605545807       14.5092297938       39.7808118739
  C        -3.9916630381       17.6507989412       39.5066849043
  H        -4.3072840692       18.5493829746       39.0193247867
  H        -4.8313063059       17.3107513645       40.0442031076
  C        -2.7343475870       17.8626443515       40.3974541564
  H        -2.7494884217       18.8064870300       40.9713584808
  H        -2.5960973894       17.0099395815       41.0301256790
  H        -1.8628192245       17.9083447679       39.7044059933
