352
i=
  H         3.6984981706        0.8597148453       13.3262274615
  C         4.0031893662        1.9002429548       13.3235761611
  H         5.1348581284        1.9577980640       13.2982942826
  C         3.1516535399        2.6540440403       12.1910711587
  C         3.7094267263        2.4799302465       14.7485164244
  C         3.9225911531        3.0640841057       10.9386352487
  H         2.8348697094        3.6258548316       12.6236294013
  H         2.2491806394        2.1575397717       11.8343451896
  H         4.4587579034        2.1341812753       15.4421403440
  H         2.6617968980        2.3688550605       15.0523472527
  H         3.9074725005        3.6342419823       14.6829521291
  C         4.6668966737        1.8233847134       10.4331635409
  H         3.2512578597        3.4709089645       10.2258825477
  H         4.6660078515        3.8050584883       11.2902076363
  C         4.9588235349        1.9372887902        8.9292907531
  H         4.0891834482        0.9434228846       10.5196384390
  H         5.5721055950        1.7848848976       10.9915543860
  C         6.3012515283        2.7494240698        8.8133147803
  H         4.0780841687        2.3895900699        8.4722873542
  H         5.0457707009        0.9508939457        8.4822665342
  C         7.5594383038        1.9668237463        9.0984748273
  H         6.3315457811        3.1291236734        7.8455989633
  H         6.1270459264        3.6117833133        9.4565741552
  C         8.9580891242        2.7232636004        9.1927620278
  H         7.4955997064        1.2020160685        8.2774735219
  H         7.4759911327        1.3068573045        9.9240174721
  C         8.7878294411        4.0711388569        9.8672693185
  C         9.4721436566        3.3377150653        7.9170792943
  C        10.1113212238        1.9074809283        9.9274378898
  C         9.0629958606        5.1145664945        9.0599506732
  C         8.2543274311        4.4039862367       11.0672730654
  C         9.5293301041        4.6699076944        7.8416290378
  C         9.8634549384        2.6812498409        6.7083530481
  H         9.8305376353        1.6909564163       10.9456459814
  H        10.2040370770        0.9360735938        9.4124005442
  C        11.4321540555        2.7369219551       10.0890880886
  S         8.7489636916        6.6362504181        9.7675679726
  C         8.0796336002        5.7562272909       11.1705736887
  H         8.0327589481        3.6053722096       11.7236355546
  C         9.8426093335        5.3189059513        6.7251308468
  H        10.0020551299        1.5824107038        6.7458826923
  C        10.3031692560        3.3591939053        5.5751819720
  H        11.3031667023        3.7420918970       10.3400581252
  H        11.9029375463        2.9213931744        9.1441831997
  C        12.4568414125        2.1455715649       11.0582074904
  C         7.5663659183        6.4645605964       12.4124486098
  C        10.3176516379        4.7072965156        5.5526708079
  H         9.7742716925        6.4123036532        6.6059940669
  C        10.7453044070        3.0072476554        4.3567681991
  H        13.4603159702        2.4074166547       10.5996862759
  H        12.3973108422        1.0996127778       10.9948512556
  C        12.2105697239        2.6925924276       12.4555263868
  C         7.6858138213        7.8153576397       12.7259436481
  C         7.1385386780        5.6273658946       13.5714276722
  C        10.8213984950        5.4187405954        4.3311555777
  C        11.0115273611        4.1177325151        3.5932714150
  S        11.0524230095        1.4333248601        3.5760839517
  H        12.8057557111        3.5548556082       12.6029281099
  H        11.1622687375        3.0163241487       12.3632349966
  C        12.5400123089        1.7180341468       13.5750932900
  N         8.0015590138        8.7662979090       11.7786571173
  C         7.3853518210        8.3909028479       13.9381301348
  C         6.8825845998        6.1336433860       14.8482562266
  H         6.8405796488        4.6571815957       13.4278236584
  C        12.1942539022        6.1629306633        4.4981798163
  C         9.6212055996        6.2811159229        3.7683571238
  C        11.3151040938        3.6276611573        2.2506207925
  C        11.4566183585        2.2516829662        2.1654242427
  H        13.5524706706        1.6139240193       13.6893596111
  H        12.2347496506        0.7499873560       13.3091284807
  C        11.9410078459        2.0257056788       14.9463929580
  S         8.0230228045       10.2746090681       12.4876097984
  N         7.5899079992        9.7513645284       14.0024928652
  C         6.8568542794        7.6451510346       15.0617977879
  H         6.5656982001        5.4911668124       15.6143888106
  H        12.0375117412        6.7092404914        5.4401750742
  H        12.3377233539        6.9728662027        3.7887263642
  C        13.4541584398        5.4101042137        4.8240519555
  H         9.4142698527        7.1283510924        4.4208423095
  H         9.8937002649        6.8491167651        2.9136546561
  C         8.3841887106        5.4963475987        3.3687153333
  H        11.4998911755        4.4335767798        1.4858157847
  C        11.7165103140        1.4928184577        0.9500039471
  H        12.0896112172        3.0712599079       15.1391871259
  H        10.8437422250        1.8721387304       14.9189147954
  C        12.4940202622        1.1028462791       16.0569901367
  C         6.6609849453        8.2439485078       16.2881885614
  H        13.1997701017        4.7558243918        5.6692169224
  H        13.7581626021        4.8042744256        3.9244359646
  C        14.6522795584        6.2581825992        5.1965114976
  H         7.8290015058        5.0170825441        4.2418918430
  H         8.5637096571        4.6794162496        2.6652907071
  C         7.2554145488        6.4444642537        2.8319508196
  C        11.8404069388        0.0866099221        0.8269226712
  C        11.9801761880        2.3046422382       -0.2833266221
  H        13.2995501689        0.5186573338       15.6935827451
  H        11.8165988450        0.3582778374       16.4574109370
  C        12.9549719994        1.9858374994       17.1193846789
  H         6.7164142701        9.3337399672       16.3392469354
  C         6.4081815948        7.7945853214       17.5694727491
  H        14.1622790687        6.8779144603        5.9498861734
  H        14.9761871977        6.8999974413        4.4305028434
  C        15.7924353101        5.3510361852        5.7387055202
  H         6.5787511730        6.6875779410        3.6406848882
  H         7.6546180119        7.3809496477        2.4813019914
  C         6.3337034000        5.8144880397        1.7749968837
  N        11.5915535947       -0.8670186786        1.7960108296
  C        11.9958945112       -0.4521279481       -0.4098920133
  C        12.2454756545        1.6777969015       -1.5183743870
  H        11.8249334882        3.3529309400       -0.3772655788
  H        12.1093039260        2.7061448272       17.2873892622
  H        13.7654440471        2.6398735319       16.7066082648
  H        13.2677882772        1.5981402970       18.0404190588
  S         6.1446642080        6.1568052294       18.0372938648
  C         6.2722421938        8.7249990658       18.7309165270
  H        15.3854019848        4.4622652480        6.2462589682
  H        16.3649368775        4.9512138930        4.9113128662
  C        16.5865505643        6.0894201920        6.7762444255
  H         5.6253812098        5.2943611917        2.3821658222
  H         6.8957328190        5.1444684653        1.1222804921
  C         5.5852314998        6.7777548160        0.9072657679
  S        11.5632285904       -2.3436708340        1.0822632121
  N        11.8353490210       -1.8071807072       -0.4476618052
  C        12.3063942984        0.1940185593       -1.6020492091
  H        12.3115741317        2.2590962519       -2.3607162861
  C         6.0787871610        6.7522039947       19.6816745597
  N         5.9931518319        8.1075511943       19.8070834346
  O         6.3418267741        9.9435318979       18.6421974638
  H        17.0047059977        6.9878077609        6.3518455426
  H        15.9633971046        6.5094148774        7.5731379153
  C        17.6677057243        5.2380732369        7.5032723908
  H         6.2664605522        7.4269627365        0.4146823170
  H         4.9790273966        6.1390257918        0.2132832061
  C         4.6246765650        7.7467005428        1.6806440707
  C        12.5537996091       -0.5295288628       -2.8089823599
  S         5.5750256074        5.8087442830       21.0409249751
  C         5.9179011725        8.8356453996       21.1014973365
  H        17.2103209874        4.6471308829        8.3474634714
  H        17.9824572156        4.5422832296        6.8018706159
  C        18.8952713727        6.0090057463        7.9797772958
  H         5.2254601750        8.2528842148        2.4236498752
  H         3.8532872323        7.1028480009        2.2233409461
  C         3.8350778475        8.6774591939        0.7939984816
  H        12.5820114408       -1.6124034534       -2.6556917778
  C        12.9810348820       -0.1082827573       -4.0622530721
  H         5.1351852929        8.4645078521       21.7660783564
  H         5.4830107502        9.8626049141       21.0253832643
  C         7.2524006899        8.9694105727       21.8688198820
  H        19.4976161555        5.3462832794        8.6125788090
  H        18.6899296950        6.8524253921        8.5834872864
  C        19.7274114651        6.3823526649        6.7531309672
  H         3.9367520007        8.3684764995       -0.2401649597
  H         2.8195137315        8.5424764277        1.1644321598
  C         4.0802666824       10.2077206425        0.9858938461
  S        13.4844729340        1.4140573429       -4.5990694704
  C        13.0737013873       -1.2339081680       -5.0593093211
  H         7.6827921235        9.8953719395       21.5321546853
  H         7.9730208248        8.2141460371       21.5025236911
  H         7.1142230528        8.9661408510       22.9761268130
  H        20.5409053851        7.0398067206        7.1236324475
  H        20.2092521193        5.5076833775        6.3485646809
  H        19.2086142436        6.8405246323        5.9065984949
  H         4.7870889392       10.4696940734        1.7252804281
  H         4.5572432247       10.6258886472        0.0380446044
  H         3.0756097753       10.7458331047        1.1309768326
  C        13.7181170474        0.5773023775       -6.1349471891
  N        13.5505652318       -0.7572443069       -6.2076757394
  O        12.6129188378       -2.3203531966       -4.9331855205
  S        14.3898458452        1.2926673048       -7.5271082126
  C        13.4715246737       -1.5486524432       -7.4836899100
  H        13.4299030631       -2.6037875182       -7.2406063647
  H        14.3161513847       -1.3498660571       -8.1603277651
  C        12.0774618156       -1.2046422637       -8.1245395007
  H        11.3014792196       -1.3558397238       -7.3433976133
  H        11.8503820825       -1.8639085032       -8.9679579108
  H        11.8582888202       -0.0978189267       -8.3597570925
  H        -2.1520038056       15.1654381791       17.8808934954
  C        -2.9561090806       14.6577362468       17.3121087155
  H        -3.7320907770       15.4252068308       17.2273755128
  C        -3.3209829336       13.5435134046       18.3122620821
  C        -2.6387023486       14.0787892690       15.8995066154
  C        -2.1827890474       12.6501263439       18.7514945608
  H        -3.8054453342       14.0062776335       19.1444656065
  H        -4.0623814012       13.0101091511       17.8353130856
  H        -1.5673014021       13.9023429822       15.8834483078
  H        -3.1031442525       13.1211634658       15.8590900404
  H        -2.7445175686       14.6654222130       14.9361891916
  C        -1.3636862377       13.2529746990       19.9079400584
  H        -1.4705724674       12.3636530639       17.9758943138
  H        -2.6166344359       11.7312575098       19.1452477061
  C        -2.0343840089       13.3302902687       21.3299411777
  H        -0.5181556027       12.5835644895       20.0394026600
  H        -0.8472253540       14.1879806843       19.7019802058
  C        -1.0991838015       12.8180844310       22.3960919141
  H        -2.9672878046       12.7597389378       21.2367671602
  H        -2.4573138675       14.3200583471       21.5906110228
  C         0.2269687429       13.6467309117       22.5161920603
  H        -1.6605353051       12.9179059086       23.2939870918
  H        -0.9130655958       11.7625399605       22.2294692988
  C         1.3381443984       12.9238674063       23.2213198330
  H         0.3413427389       14.0531314985       21.4769415888
  H        -0.0513394389       14.5752563647       23.0725458417
  C         1.7069211962       11.5736744897       22.4854483646
  C         0.7696110770       12.1620550376       24.4267941632
  C         2.5716869584       13.8439445230       23.3687510991
  C         1.4007747042       10.4745426765       23.2115480431
  C         2.1232441074       11.1685421661       21.2110684076
  C         0.8318355284       10.7860362800       24.4337480589
  C         0.1954644585       12.7595135197       25.5447655168
  H         2.7100527711       14.3276428729       22.4064909604
  H         2.2871471882       14.5799533180       24.1007697821
  C         3.8394318249       13.1853808157       23.8147873850
  S         1.6363740676        8.9454331043       22.4553484171
  C         2.1399221017        9.7819343721       20.9639201621
  H         2.4610758736       11.9515342980       20.5941940646
  C         0.2855682000       10.2017018716       25.5568877441
  H         0.1561500254       13.8179449143       25.5206169666
  C        -0.2479452695       12.1460864206       26.6462425292
  H         4.1360079360       12.5816609497       22.9587937919
  H         3.7800902250       12.4826061623       24.6587145928
  C         4.9358350701       14.1104267480       24.2140019101
  C         2.5620733808        9.2000014181       19.6892270520
  C        -0.2440344951       10.7981993857       26.7072639195
  H         0.3613206336        9.1529046271       25.6282223289
  C        -0.7023108322       12.5205015856       27.8988171743
  H         5.6922779144       13.6048054937       24.8076052413
  H         4.4546900458       14.9128769456       24.8680564388
  C         5.7847863178       14.7344524641       23.0762068020
  C         2.5419469533        7.8164455303       19.3998620701
  C         3.1859678569       10.0752570781       18.6084684792
  C        -0.7027708297       10.1240873649       27.9275640848
  C        -0.9787516375       11.4506216789       28.6625981897
  S        -0.8816750859       14.0362635175       28.6343922697
  H         6.4210432692       15.4710815725       23.5971599280
  H         5.1247373520       15.4170004796       22.5519637197
  C         6.6125017044       13.7116527163       22.2221996332
  N         2.0296958382        6.7827089320       20.1974107987
  C         2.7581882254        7.3578537695       18.1422423165
  C         3.5273530202        9.5252293633       17.4164914519
  H         3.1610680795       11.1719566430       18.6972602384
  C         0.4753992523        9.1997197140       28.4369000107
  C        -1.9547287699        9.2510369010       27.7193669823
  C        -1.3360454076       11.8711746787       29.9946264125
  C        -1.3922456451       13.2034007151       30.1640022836
  H         7.7029254595       13.8559408307       22.0787548994
  H         6.4632873502       12.7778802030       22.7911650082
  C         5.9611689890       13.6747660726       20.7576656725
  S         2.1947672021        5.3924256665       19.4817583209
  N         2.6178690258        6.0316627422       18.0769214343
  C         3.2640452525        8.1176826307       17.0745656241
  H         4.0020485105       10.1130549747       16.5984276612
  H         0.8425676150        8.4411663396       27.7542050097
  H         0.0040971923        8.6577701305       29.2366202681
  C         1.7512689529        9.9194418089       28.8144626876
  H        -1.7803250722        8.4325780911       27.0088516881
  H        -2.1836722521        8.7956397146       28.6583063193
  C        -3.1698508305       10.1034203144       27.4230430564
  H        -1.7028711443       11.1178826830       30.6440026573
  C        -1.5940886382       13.9325709339       31.5001556589
  H         6.0276854423       14.6569940884       20.3061371813
  H         4.8268054235       13.3995178007       20.8836627135
  C         6.6517018338       12.7156521500       19.8238809063
  C         3.5700405249        7.4267035237       15.8863441440
  H         2.3001996750       10.5091797535       28.0491281948
  H         1.3979992206       10.6453586343       29.5304731426
  C         2.7979203160        9.0563380376       29.4437670453
  H        -2.9933360313       10.6534261428       26.4373093015
  H        -3.3299156464       10.8372611943       28.2304476155
  C        -4.4043858703        9.1618874285       27.3426148172
  C        -1.5486085913       15.3110032528       31.6445431320
  C        -1.8180469072       13.1775101148       32.7526909349
  H         7.2078697115       12.1077038837       20.4630815730
  H         5.8010299955       12.0581303720       19.4784775660
  C         7.3952735781       13.3257891271       18.6307525666
  H         3.4981105286        6.3632811521       15.8584316517
  C         3.7427055469        7.9423692657       14.6093505874
  H         3.3285956332        8.4133403518       28.7181308842
  H         2.3362054452        8.3568755868       30.1301152503
  C         3.7927988756        9.8884809337       30.2592900970
  H        -4.0526028737        8.4115979019       26.5701784723
  H        -4.6091444051        8.6316367643       28.3344052109
  C        -5.6925506176        9.9373565138       26.9013095006
  N        -1.4400183400       16.2398081752       30.6149235178
  C        -1.8984389367       15.9722784483       32.7849508212
  C        -2.0871311035       13.7902345917       33.9572639233
  H        -1.9491125628       12.1018242222       32.6509996967
  H         6.7114809933       13.8764089457       18.0454123244
  H         8.1502996707       14.0306779358       19.0574460802
  H         7.9281816321       12.5567607763       17.9950696016
  S         3.9593132419        9.5955183188       14.1729435660
  C         3.9062448264        7.0206196783       13.4616779864
  H         3.9990580659       10.9094351394       29.8369005513
  H         3.4511339196        9.9962110861       31.2820959461
  C         5.1786448406        9.2846810241       30.1912534457
  H        -5.8017807638       10.9790552654       27.2905594443
  H        -6.5048813991        9.4411472015       27.3893458941
  C        -5.7966783144        9.9741467879       25.3956388413
  S        -1.5388596620       17.7676141601       31.1658543632
  N        -1.8821417087       17.4207897692       32.6871520141
  C        -2.1537903017       15.2787773583       33.9936326433
  H        -2.2627170587       13.1730789927       34.8215639209
  C         4.4259918847        8.9962534608       12.5859194697
  N         4.3855578754        7.6664061128       12.3676927871
  O         3.5280983578        5.8699438693       13.5545943161
  H         5.9865709920        9.9674336069       30.6038531389
  H         5.5471192290        9.0050018215       29.1744761234
  C         5.0743176665        8.0299666712       31.0404958377
  H        -4.8612647975       10.4019498238       25.1422701531
  H        -5.8762897629        8.9409175698       24.8508269141
  C        -6.8142464276       10.9737441547       24.9061718615
  C        -2.5007713198       16.0044011575       35.1855701134
  S         4.8285851152       10.0327367909       11.2700541991
  C         4.5614777068        7.0878605357       11.0766133519
  H         4.5905982532        8.1922980458       31.9923616255
  H         4.3990142428        7.2330710872       30.5953526545
  C         6.4217463279        7.2925918921       31.1720645958
  H        -6.4410309216       11.3715898227       23.9020586440
  H        -6.8429679467       11.8200808494       25.4878017558
  C        -8.1595333897       10.2506099843       24.7690309586
  H        -2.1343609661       17.0364021649       35.1417582880
  C        -3.1186963464       15.7227062805       36.3841731284
  H         5.0461560087        7.6356018046       10.3261279102
  H         5.1665728126        6.2066137742       11.0746477840
  C         3.1574857748        6.7516923214       10.4662997780
  H         6.1500037637        6.5304338223       31.9210227946
  H         7.3205408403        7.8945022239       31.4920557868
  C         6.7819763724        6.7049312219       29.7842064178
  H        -8.7977713688       10.7443263393       24.0975508018
  H        -8.0797582266        9.2832766421       24.2999696208
  C        -8.9244561970       10.2407628066       26.1419664786
  S        -3.8774872035       14.2229374256       36.9276909946
  C        -3.2595730120       16.8346582472       37.4005478690
  H         2.9473801353        7.4855178393        9.6221736016
  H         3.1834658050        5.7191975692       10.1879789100
  H         2.3537273628        6.9521713933       11.2384794097
  H         5.9597581910        6.3565875142       29.1945106064
  H         7.5018124915        5.8752461314       29.9154135455
  H         7.1621905211        7.5560526992       29.2209834657
  H        -8.5063001705       11.0726840051       26.7481181519
  H        -8.7859087863        9.2697531739       26.7053094135
  H        -9.9555729834       10.6514725118       25.9501021648
  C        -4.2930287041       15.0492051892       38.4287077261
  N        -3.9309733270       16.3750832108       38.4894559038
  O        -2.6600855827       17.8583156085       37.2370965333
  S        -5.1948888833       14.3791725147       39.7362158059
  C        -4.0515889495       17.1811319366       39.6810908286
  H        -4.1335352546       18.2211104719       39.4379028942
  H        -5.0027228079       16.8919656477       40.1189870737
  C        -2.8678740980       16.9811084842       40.7373200287
  H        -2.7334145525       17.9532467537       41.2591351557
  H        -2.9891711961       16.2235389516       41.4773471164
  H        -1.9899584893       16.7494531406       40.1192136223
