352
i=
  H         2.9314315089        3.9872728605       12.6780750568
  C         3.2578414139        3.0376724808       12.4538499194
  H         2.9048760385        2.2874103997       13.2252097886
  C         2.7598462044        2.5159295845       11.1597956096
  C         4.7478402206        3.0300844315       12.6379903635
  C         3.5794669992        2.9292987660        9.9390965258
  H         1.7245150011        2.8102250433       10.9427866371
  H         2.7986988885        1.3983798787       11.1580067903
  H         5.0495244531        2.9564818652       13.7026702662
  H         5.1823682232        3.9367389004       12.2211926787
  H         5.2684619082        2.1725241302       12.0943746737
  C         4.4611975332        1.7401054705        9.3858613650
  H         2.8903481839        3.3727663204        9.1950413858
  H         4.2082133995        3.8835844153       10.1136596568
  C         5.4025688744        2.1230743799        8.2907816091
  H         3.6840340424        1.0321145834        8.9976453665
  H         5.0622311035        1.1817397479       10.1754398867
  C         6.5113000925        2.9908462703        8.8978255320
  H         4.8193357756        2.6008578460        7.4789308947
  H         5.8311335248        1.2091026212        7.8603836682
  C         7.8443570967        2.1639396834        8.8876935316
  H         6.6402771071        3.8951116901        8.2295387347
  H         6.2239092508        3.4067802132        9.8491245855
  C         9.0641803317        3.0243962609        9.1702415261
  H         7.8344915583        1.6946548098        7.8910854899
  H         7.6980050418        1.3433455581        9.6074772432
  C         8.8421739594        4.3944143241        9.8454498207
  C         9.6892308516        3.6792311498        8.0165740924
  C        10.1518755440        2.1830888070        9.8330138796
  C         9.2779137775        5.5017017009        9.1182587365
  C         8.3589620249        4.8515973249       11.1197498197
  C         9.7480027786        5.0203938813        7.9096957408
  C        10.2073842023        3.0663015517        6.8638952397
  H         9.7376060833        1.8492897723       10.7084993401
  H        10.3180503253        1.2532974773        9.2029008502
  C        11.4678086213        2.9986218982       10.1046076309
  S         9.1546980942        6.9915437038        9.8627960033
  C         8.4293312760        6.1846272559       11.2209704250
  H         7.9562802386        4.0966317274       11.8196256054
  C        10.3756329625        5.5743447750        6.7923612454
  H        10.1298958931        2.0392750680        7.0013654600
  C        10.6121448772        3.6117889822        5.6539135230
  H        11.2260358323        4.0103573263       10.4472612581
  H        12.0893217996        3.3332434248        9.2406668285
  C        12.4037360977        2.3036505485       11.0912809875
  C         8.0547101527        6.9238901747       12.4869485926
  C        10.7235929329        4.9395325473        5.5571736555
  H        10.4545953402        6.6376796147        6.8881200122
  C        10.9811171080        3.1340630147        4.4275016455
  H        13.4104889627        2.7920273671       11.0344693730
  H        12.7611106620        1.3551466520       10.7142006060
  C        11.8026850322        2.3082246844       12.5191871842
  C         8.1274736163        8.3328611124       12.6498756502
  C         7.6647757698        6.1608947719       13.6766725324
  C        11.1177830963        5.5257259042        4.2678664954
  C        11.1532501808        4.1465268684        3.5187144512
  S        11.2053732261        1.5324404078        3.8341657038
  H        11.0623082124        3.0676289315       12.6768226195
  H        11.2969385077        1.3596626169       12.6217134111
  C        12.9460500899        2.4328646395       13.5780130190
  N         8.5055277657        9.3179862589       11.7299015778
  C         7.6794156835        8.9015946529       13.8368734022
  C         7.3375196559        6.7214742328       14.9065953166
  H         7.4437481570        5.0900313979       13.5601040489
  C        12.5267078702        6.1971539137        4.2986189355
  C         9.9664522105        6.3305081283        3.6194485523
  C        11.4485434503        3.6068973346        2.2067431383
  C        11.5249687483        2.2861800659        2.2971044598
  H        13.3578424920        3.4611172439       13.4228820628
  H        13.7318067384        1.6849927875       13.3283812335
  C        12.3759093338        2.2309879250       14.9552085790
  S         8.3726788749       10.7737342892       12.4123235311
  N         7.7221266861       10.2992683112       13.8577766963
  C         7.2302308667        8.1439793218       14.9580177955
  H         6.9576017446        6.1054658502       15.6579902841
  H        12.3793835822        7.1059787006        4.8559352682
  H        12.8975798690        6.4870760374        3.3406237434
  C        13.6012176114        5.3940922391        4.9445663302
  H         9.4977547552        6.9854767642        4.4454504835
  H        10.4256470540        7.0589164551        2.9953696469
  C         8.8012461525        5.4978421375        3.0943063002
  H        11.6974147913        4.2868572527        1.3869063040
  C        11.8255433690        1.3462939052        1.1806655292
  H        11.7924434015        3.1295303921       15.1604041764
  H        11.6805469486        1.3458794899       14.9077632924
  C        13.4349050792        1.9762550121       16.0429740224
  C         6.8528711909        8.8809602339       16.1515311693
  H        13.2362711373        5.2227559201        5.9352301027
  H        13.8867201064        4.4432071361        4.3786625561
  C        14.9101019909        6.1346238912        5.0719341158
  H         8.3234946970        4.9330537421        3.9124998436
  H         9.0354857504        4.7281685985        2.3897931343
  C         7.7901983429        6.4190001982        2.5069161864
  C        11.9081646914       -0.0799594253        1.1574909276
  C        12.1366706080        1.9574216210       -0.1645860803
  H        14.5125238261        2.1940781692       15.8499375922
  H        13.4613483770        0.8763855660       16.1955287124
  C        13.1230825726        2.6719562636       17.3541199524
  H         7.1114261899        9.9620704612       16.0836170749
  C         6.4193017062        8.3967870363       17.4116571418
  H        14.7770343807        6.9743618851        5.7730213170
  H        15.3326143498        6.5392808089        4.1638457596
  C        16.0310448484        5.3243252568        5.6875498408
  H         7.5498758228        7.2306868228        3.1776831153
  H         8.2309388848        6.9155748990        1.6034041375
  C         6.5406832755        5.7130330885        1.9631459197
  N        11.6454855222       -0.9540397273        2.2148918448
  C        12.0787527353       -0.8283603609       -0.0002379795
  C        12.4882916426        1.1962963288       -1.2857579847
  H        12.0944539886        3.0478689841       -0.3065125709
  H        12.0884746885        2.9187044564       17.5805736254
  H        13.7070148321        3.5998426030       17.4445672446
  H        13.5108871870        2.0837804659       18.1350996420
  S         6.1386118968        6.8013813980       17.9581339272
  C         6.3041139838        9.4355083548       18.4821858043
  H        15.5878949233        4.5301387298        6.2817403964
  H        16.5425092701        4.8631351621        4.8478007285
  C        17.0109907325        6.0319913953        6.5872529281
  H         6.0598202469        5.1949909089        2.7728146548
  H         6.8903447005        4.9064030541        1.2907441424
  C         5.5732802203        6.6354370834        1.1610926125
  S        11.3374499725       -2.4645431043        1.6718195005
  N        11.9343186413       -2.2101828435        0.1388597952
  C        12.5208021963       -0.2829153828       -1.2619070513
  H        12.6400157834        1.6968082776       -2.2164025093
  C         5.8974569517        7.4999824316       19.5723713936
  N         5.7917110509        8.8447631249       19.5915971138
  O         6.5515187530       10.6194826825       18.3302820904
  H        17.4512815469        6.8353819917        5.9346158182
  H        16.4985662920        6.6476093934        7.3454412836
  C        18.1301758447        5.1849492379        7.0986932645
  H         6.1552784522        7.3582202557        0.5863216901
  H         5.0053914994        5.9997248534        0.4714128394
  C         4.5272311059        7.2632655127        2.0331057129
  C        12.8529013442       -1.1106407589       -2.4078956162
  S         5.7114905549        6.6765916042       21.1337271639
  C         5.6858991628        9.5535878115       20.8514718113
  H        17.7235173225        4.7746215646        8.0874017868
  H        18.4091227515        4.3190939543        6.4753555384
  C        19.3043931652        6.0623193905        7.6388703741
  H         4.9689875669        7.5591893858        3.0508797953
  H         3.8313060955        6.4730257219        2.2559982672
  C         3.7836207497        8.4086919764        1.3863508606
  H        12.6509380052       -2.1288660365       -2.2483219952
  C        13.3520949310       -0.7092768576       -3.6746399342
  H         4.9633434456        9.1149713152       21.4939020207
  H         5.3315998258       10.6006166293       20.6404227059
  C         6.9976044231        9.6414831662       21.7138160429
  H        19.7580604805        5.6428109384        8.5443601455
  H        18.8122539442        7.0456475067        7.7547904213
  C        20.3732848299        6.2049983953        6.5809064834
  H         3.5337089908        8.2060973965        0.3385118457
  H         2.8400588400        8.2670103890        1.9963929853
  C         4.3347909364        9.8774847133        1.6611908726
  S        13.8231006504        0.8182050655       -4.3108060729
  C        13.5084101015       -1.7916797787       -4.6111182038
  H         7.5505428323       10.5206511668       21.5160046639
  H         7.7035126818        8.8417724559       21.5841207330
  H         6.7108586337        9.8212866744       22.7692479262
  H        19.9450841612        6.7041441305        5.6542452251
  H        21.3475592862        6.4988191332        6.7978510770
  H        20.5135213638        5.1543929869        6.3282704728
  H         3.9954486390       10.3734208699        2.5738810931
  H         5.4133801578        9.7660628533        1.5057554815
  H         3.8160058606       10.5688411536        0.8964216587
  C        14.1092549883        0.0075891493       -5.8351161310
  N        13.9300468353       -1.3059381120       -5.7709666015
  O        13.2917900284       -2.9872696467       -4.3072245958
  S        14.7429073015        0.8008335053       -7.2891948066
  C        14.0857372198       -2.0905191955       -6.9854170987
  H        14.2269434542       -3.1443536408       -6.7884974390
  H        14.9720434487       -1.6818125360       -7.4457084031
  C        12.8122096276       -1.9099647995       -7.8126106265
  H        13.0832124708       -1.5617523027       -8.8138869482
  H        12.1029061660       -1.2704337744       -7.3982325557
  H        12.2562715621       -2.8592608644       -7.9383410544
  H        -1.6617108932       14.7606066521       16.5597280649
  C        -2.7145699453       14.5237657620       16.5861988549
  H        -3.2893464035       15.4239928267       16.5592716264
  C        -3.0578543217       13.8427519887       17.9268657671
  C        -2.7896979120       13.6391929362       15.3571861039
  C        -1.8678566629       13.0577181679       18.5666565291
  H        -3.3913860842       14.7202932548       18.5505987560
  H        -3.8766227788       13.1456918481       17.8932875187
  H        -2.3046015824       12.7284841410       15.6125416660
  H        -3.8195294203       13.4442229838       15.1353803103
  H        -2.2296457426       14.2163977294       14.5691568291
  C        -1.2052153806       13.9442089360       19.6265878810
  H        -1.1320931067       12.8837729501       17.8437004381
  H        -2.2157219412       12.1634921464       19.0494228529
  C        -1.8638382626       13.8809441825       20.9390851544
  H        -0.1477828490       13.7118375433       19.8027766387
  H        -1.2429481166       15.0235002446       19.3397806641
  C        -1.0240454176       13.1015473797       22.0256123744
  H        -2.7755973453       13.3091941283       20.8161274844
  H        -2.1827383029       14.8731797660       21.3211946894
  C         0.0628520065       14.1061606963       22.6043514578
  H        -1.7316467373       12.7593840068       22.8556347520
  H        -0.6465157177       12.1888915998       21.4320128133
  C         1.2005991786       13.3636029949       23.2609915390
  H         0.4949402110       14.8704310965       21.9956246144
  H        -0.3948730819       14.6644552378       23.3958725301
  C         1.6297117723       12.0662481948       22.5308856132
  C         0.8433351251       12.6167394467       24.4754504323
  C         2.4450939348       14.3247565835       23.4441804867
  C         1.4860276913       10.9481095501       23.3137259323
  C         2.2327031742       11.7625275320       21.2907918221
  C         1.0505080744       11.2635624939       24.5972230718
  C         0.4222206744       13.1254833770       25.6361968893
  H         2.6655193371       15.0906389054       22.6602767638
  H         2.1268793791       14.9782328839       24.2626442471
  C         3.7588700421       13.6469437236       23.9327264425
  S         1.9520801441        9.5240073332       22.5425758427
  C         2.2143324082       10.4110322497       21.0824170873
  H         2.4506665765       12.5810549965       20.6547090670
  C         0.7420898510       10.5620978749       25.7319729489
  H         0.2426295698       14.1563969202       25.5291586721
  C         0.1463611520       12.4846669800       26.8082593055
  H         4.0614772034       12.8167576750       23.2942249947
  H         3.4881327223       13.1812651674       24.8439387524
  C         4.9560320890       14.4913240739       24.1674264310
  C         2.5310303783        9.6214948362       19.7944430694
  C         0.2504887724       11.1238951408       26.9232231485
  H         0.8985276950        9.4908056848       25.7976972686
  C        -0.3102188811       12.7871723144       28.0547692160
  H         5.7973124607       13.9745975002       24.5899435256
  H         4.7178343713       15.4195143502       24.8351840265
  C         5.5377316311       15.2708208155       22.9882337495
  C         2.5779153484        8.2173311071       19.5907469444
  C         2.8079478101       10.4569234912       18.5929681399
  C        -0.1694805322       10.3495131347       28.1366642888
  C        -0.4821730028       11.6768621255       28.8690417438
  S        -0.6610560634       14.2492003234       28.8267433204
  H         6.2100499346       15.9574854946       23.5218821880
  H         4.7510268878       15.7741870882       22.5026546187
  C         6.3377385019       14.4719167119       21.9930616276
  N         2.3594124957        7.2164533992       20.6004727543
  C         2.7637061101        7.6991931030       18.3319503914
  C         3.0129907690        9.9063535371       17.3621782389
  H         2.7883720768       11.5246339128       18.5937492386
  C         1.0404030972        9.6681958467       28.7142493239
  C        -1.4195763644        9.4574563813       27.7913062889
  C        -0.9432201881       12.0518612963       30.1600322736
  C        -1.0462049330       13.4276135075       30.3002931633
  H         7.2857993579       14.8712815065       21.8573515494
  H         6.4477746796       13.4534931711       22.4158041055
  C         5.6566610758       14.3486141529       20.6529986510
  S         2.3575693815        5.7937469235       19.9219579808
  N         2.7648252424        6.2700697631       18.4231560337
  C         2.9116848451        8.4653237618       17.1564216252
  H         3.4129410866       10.5061101336       16.6584888636
  H         1.3697073866        8.8484277369       27.9977366718
  H         0.6505215688        9.1798519587       29.5936947410
  C         2.1648308999       10.4996282442       29.2381396970
  H        -1.2964154098        8.8560032513       26.8971030803
  H        -1.7318660644        8.6731304478       28.4909663816
  C        -2.7416332797       10.2239100659       27.5345725732
  H        -1.2408642294       11.3517043590       30.9167068596
  C        -1.3853978670       14.1743780423       31.5378197545
  H         5.5241774579       15.3872007714       20.2555903544
  H         4.6318619279       13.9381477933       20.6268313885
  C         6.2698174407       13.3995073774       19.6914850351
  C         3.3313708815        7.8133731570       15.9501351067
  H         2.6263777403       11.0099287146       28.3847648431
  H         1.7533491698       11.2873980110       29.8296494007
  C         3.2625567992        9.6588188683       29.8860790920
  H        -2.7694024339       10.7860099638       26.5560052282
  H        -2.9697297117       10.8779068142       28.3229821079
  C        -4.0144548395        9.3466920810       27.5720785229
  C        -1.5520657622       15.5668976803       31.6272487097
  C        -1.5350017137       13.4453955744       32.8796438213
  H         6.3856477967       12.5127393215       20.2466751055
  H         5.4161338798       13.0536565724       19.0477697020
  C         7.4546556461       13.9028132431       19.0098264403
  H         3.1205491536        6.7662459515       16.0363174955
  C         3.7335722284        8.2212693749       14.7517594812
  H         3.5245136383        8.9852817357       29.0412838530
  H         2.7033434038        9.0857129070       30.5715845890
  C         4.6125623697       10.3063710250       30.3668197009
  H        -3.9580494620        8.5670761440       26.8327766427
  H        -4.0562320774        8.8201845517       28.5235082800
  C        -5.3153756221       10.0149347121       27.2654590148
  N        -1.4845657432       16.4630130346       30.5746693023
  C        -1.8209794090       16.2223466684       32.8156316959
  C        -1.8320823785       14.0990362989       34.0572841502
  H        -1.4595846282       12.3960183699       32.8762752003
  H         7.3000550171       14.8256539565       18.5586496896
  H         8.3280883003       13.9317878368       19.7042205205
  H         7.4922394450       13.0912331495       18.2278377145
  S         4.2064124581        9.8325258206       14.2367451719
  C         3.7438520674        7.1853435359       13.6709970394
  H         4.7333187643       11.1405973470       29.6532844546
  H         4.5160631681       10.7042208232       31.3551118804
  C         5.8258601322        9.4621851590       30.1060587233
  H        -5.3733552031       10.9753908168       27.8589109894
  H        -6.1639317771        9.4542206264       27.5250725099
  C        -5.3508413856       10.4085796781       25.7998104499
  S        -1.5808109958       17.9782768667       31.0956156942
  N        -1.8244643198       17.6223463400       32.6800312978
  C        -1.9139766050       15.5629053504       34.1015191877
  H        -2.0104494247       13.5197096191       34.9618682465
  C         4.2941010038        9.1185932827       12.6199383107
  N         4.0631180084        7.7856003426       12.4988947764
  O         3.3202879268        6.0539472451       13.8541997760
  H         6.6351895361       10.0818374707       30.3867396054
  H         5.9991862491        9.3607935825       29.0116417514
  C         5.7391829580        8.0909738851       30.7870877259
  H        -4.6185744084       11.1190767594       25.6216564950
  H        -5.2325499449        9.5272185028       25.1570281312
  C        -6.6303345319       11.2727564655       25.5270772329
  C        -2.2012458837       16.4206119323       35.2566273079
  S         4.9429160423        9.9783622821       11.2285967911
  C         4.1828672122        6.9773388917       11.2627091869
  H         5.5536467564        8.4011471472       31.8082069018
  H         4.8557628723        7.5873419034       30.4955479082
  C         7.0493798113        7.2510649694       30.8103197570
  H        -6.2408897470       12.0842632816       24.8802534644
  H        -6.9574737071       11.6385341286       26.4521148853
  C        -7.7270221954       10.5294564495       24.8068274082
  H        -1.8545850003       17.4607696813       35.1249834103
  C        -2.8377849774       16.2394344517       36.4885728075
  H         4.4819757460        7.5680802360       10.4835421489
  H         4.9789009093        6.2060148099       11.4473700892
  C         2.7884959931        6.3974451072       10.8921160078
  H         6.9157218917        6.3304371638       31.3937866383
  H         7.8850845021        7.7580728399       31.2813446458
  C         7.5271934177        6.7389760799       29.4387538634
  H        -7.7363978457       10.9193152568       23.8285811096
  H        -7.5514361201        9.4646575445       24.6580998355
  C        -9.0295204417       10.6847047753       25.5391173202
  S        -3.3674721269       14.6618851992       37.1509398197
  C        -2.9954553816       17.3952110993       37.3645100440
  H         2.1391533992        7.2743273186       10.9146529394
  H         2.7579689940        5.9561414681        9.8493092297
  H         2.3783404495        5.7004048654       11.6452383330
  H         6.7684654591        6.6234618176       28.6969904765
  H         8.1946633127        5.8461448139       29.5064940488
  H         8.1703558679        7.5816073765       29.2886250096
  H        -9.2139808834       11.6645693648       25.9399070125
  H        -9.0055066067       10.0131994334       26.4269712361
  H        -9.8627163791       10.3971093584       24.8146341970
  C        -3.9331078227       15.6930801727       38.4855937969
  N        -3.6597884369       17.0468421121       38.4623200985
  O        -2.6013538922       18.5057459094       37.0220797763
  S        -4.8524995053       15.0214696896       39.8845486031
  C        -3.9293388288       18.0580734064       39.4703446020
  H        -4.3149859996       18.9249171640       38.9630734753
  H        -4.7767737575       17.6946988181       40.0726464918
  C        -2.7430383163       18.1827064856       40.3757253895
  H        -2.6427009222       17.3571443510       41.0941087058
  H        -1.8440927895       18.3736178234       39.8442191802
  H        -2.8338530405       19.1030163919       40.9544986594
