352
i=
  H         5.1170980215        1.9979675670       12.5631174811
  C         4.1729680618        2.5485643381       12.6802492533
  H         4.3318386942        3.6099658453       12.7941638468
  C         3.1897634677        2.3883563180       11.5664678153
  C         3.5673076818        2.3719687326       14.0682268216
  C         3.8385824612        2.6060669607       10.1313304507
  H         2.4845808264        3.2073596288       11.5748404755
  H         2.7131707170        1.4751740899       11.5843463698
  H         2.6601714150        1.6453557684       13.9930471114
  H         3.0438331686        3.2457353451       14.3769403832
  H         4.2875661798        2.0840365855       14.8038888346
  C         4.4972200819        1.3373419131        9.6013545948
  H         3.0076340879        2.9245448147        9.4648939616
  H         4.4483934236        3.5379692438       10.1890130519
  C         5.2517173147        1.5692995854        8.2631502696
  H         3.6848084796        0.5941679342        9.6088792164
  H         5.0728965749        0.9282038078       10.4580228382
  C         6.5587758245        2.4175298678        8.1884146770
  H         4.4724567948        1.7575079854        7.5014879157
  H         5.5898766858        0.5497150052        7.9842965652
  C         7.7567567728        1.7513639492        8.9187233758
  H         6.7389269998        2.6681226099        7.2188125725
  H         6.2885477841        3.4059729117        8.6322058786
  C         8.9872785939        2.7783898965        9.0393479874
  H         8.1060145259        1.0068401015        8.1581652249
  H         7.4769863649        1.3502842110        9.9423775998
  C         8.6428577278        4.1642367820        9.6898397975
  C         9.3593434912        3.4337709293        7.7453673866
  C        10.3261098688        2.1472276403        9.6729267375
  C         8.6915881769        5.2562945240        8.8176560031
  C         8.1947555918        4.5249603359       10.9612883354
  C         9.3131344887        4.8200569978        7.6268183484
  C         9.8146656764        2.7876149368        6.6130453098
  H         9.9549544751        1.5670412198       10.5638595520
  H        10.7301179928        1.4702306320        8.9832304988
  C        11.3851434158        3.1306864918       10.0099229248
  S         8.3165266392        6.7355096929        9.5379479241
  C         8.0794024474        5.9231586145       11.0517151860
  H         8.2219276244        3.7779184088       11.6536736839
  C         9.7079988864        5.4102657353        6.4036006563
  H         9.6706985769        1.7155064984        6.5841119689
  C        10.2130321531        3.3707666224        5.4133687186
  H        11.0221542737        3.9510926730       10.5936089394
  H        11.7972763996        3.5388170486        9.1095625249
  C        12.4956663786        2.4600664497       10.8808235304
  C         7.6915352191        6.6840959272       12.2923149814
  C        10.2125171873        4.7185764288        5.3126171445
  H         9.4443166836        6.4448678365        6.2785644619
  C        10.7051318827        2.9580314741        4.2232784514
  H        13.4089074099        3.0169135145       10.8105517561
  H        12.6938379502        1.5031849996       10.4465539683
  C        11.9350484111        2.1797517420       12.2365189757
  C         7.7406714614        8.0879944058       12.5851264740
  C         7.2451435830        5.8933106900       13.5479126106
  C        10.6471797225        5.4072171030        4.0454739525
  C        10.9446740944        4.0301358190        3.4374406012
  S        11.0773585769        1.4216617665        3.4724874086
  H        10.9732436503        2.7765341571       12.4913638823
  H        11.9138172779        1.1399959052       12.3003245130
  C        12.9458217393        2.3047201711       13.2873610497
  N         8.0389135478        9.0624884689       11.6065042459
  C         7.5262223035        8.5870006937       13.8331055829
  C         7.0167937647        6.4079263406       14.8006191921
  H         7.1244427088        4.8044443703       13.3319846604
  C        11.9153007908        6.3014336302        4.4315757051
  C         9.4497309808        6.2713935685        3.3572019262
  C        11.1839739442        3.6078795977        2.1286564521
  C        11.4017898526        2.2501208420        2.0402810636
  H        13.1566949972        3.3554318220       13.2953082466
  H        13.9411284563        1.7841246681       13.1311093998
  C        12.4064230410        1.9322239260       14.5794308437
  S         8.0304904283       10.5091351896       12.3606333803
  N         7.6043161238        9.9702920324       13.8645544736
  C         7.2763774528        7.8330568926       15.0173799251
  H         6.8332160577        5.6965043231       15.6760658362
  H        11.6381245266        6.8523899327        5.3171943007
  H        12.0757882940        6.9232340214        3.5614727725
  C        13.2234419934        5.5276692450        4.6358971316
  H         9.0089621950        7.0272365819        4.1095222474
  H         9.8969805744        6.7552587863        2.6347377631
  C         8.2134121727        5.4054178853        2.9243783666
  H        11.1611069569        4.3305550924        1.2227476872
  C        11.6973188084        1.4554242513        0.7620167671
  H        11.6973459724        2.7190661358       14.8178511137
  H        11.9070960532        1.0086970661       14.6309862294
  C        13.5890562294        1.7946541819       15.6220660538
  C         6.9690442015        8.4126590314       16.2832569502
  H        13.0305885076        4.9902461187        5.5213688923
  H        13.3543111259        4.7338116012        3.9032157358
  C        14.4799718523        6.4479411068        4.8747701412
  H         7.8516650362        4.9407758093        3.8873151613
  H         8.4432805621        4.6853487285        2.2091756983
  C         7.2953789412        6.4685927266        2.2622679410
  C        11.7068871922        0.0130949644        0.6280376411
  C        12.0973144221        2.1655543212       -0.4584676312
  H        14.3589543922        2.5463362628       15.4284738589
  H        13.9050299447        0.7247976652       15.5493138179
  C        13.1340055579        2.2627296418       17.0236774881
  H         7.0378447181        9.5498814260       16.1593676419
  C         6.7497507935        7.9011470266       17.4982005964
  H        14.3245892729        7.2579092471        5.5449963413
  H        14.9107302653        6.7442382896        3.9395152723
  C        15.5633580456        5.5619756829        5.3782711013
  H         7.0502901321        7.3255055100        2.9613095999
  H         7.8860353087        7.0979518622        1.4949366345
  C         6.1039027383        6.0753321013        1.4156136900
  N        11.4053559344       -0.9211625638        1.6170734120
  C        11.9972062602       -0.6242270214       -0.6135684450
  C        12.4194840734        1.5882126415       -1.6579247864
  H        11.9190684539        3.2619219737       -0.4168280815
  H        12.3564515011        1.6064821375       17.3139920691
  H        12.7385599211        3.2602233928       16.9281415564
  H        14.0783526818        2.3431520417       17.7386884827
  S         6.4154622417        6.2917822736       17.9611171924
  C         6.8391948226        8.8157516893       18.6633840999
  H        15.2033542486        4.6970710201        5.9392611734
  H        16.0527785813        5.3154555005        4.4459934835
  C        16.7453069830        6.1557968830        6.1913509551
  H         5.5946445088        5.2453561773        2.0167055130
  H         6.4103510460        5.6063110948        0.4860150141
  C         5.0678530964        7.2331609509        1.1797445325
  S        11.5588903413       -2.4358298830        0.9488144278
  N        11.8958239924       -1.9823403573       -0.5876336058
  C        12.2805975101        0.0737857565       -1.7817189426
  H        12.4761329606        2.2847249390       -2.4664429640
  C         6.2048655748        6.8994326296       19.5593547968
  N         6.3513861901        8.1818681062       19.7450236204
  O         6.9570575876       10.0293307304       18.5977351005
  H        17.2005841571        7.0044881932        5.6573657158
  H        16.4177858753        6.5996724887        7.0703584064
  C        17.7245613176        5.1430768461        6.7377429773
  H         5.7503305188        8.0439815102        1.1659758414
  H         4.5035502579        7.1863973337        0.1616264620
  C         3.9399424473        7.2913600574        2.2196140057
  C        12.5949996627       -0.6288668939       -2.9987079221
  S         5.7133740779        5.9937686617       20.9858939395
  C         6.2329387200        8.9159385836       21.0566937709
  H        17.3432489136        4.7073655030        7.6485307857
  H        17.8613172329        4.3524103872        6.0801903264
  C        19.0626703429        5.8075954322        7.1098206143
  H         4.3494279406        7.2663049424        3.2376778521
  H         3.3454594090        6.3983486420        2.0181933834
  C         3.1466319092        8.6102812208        2.0632729453
  H        12.2688505234       -1.7642443025       -2.9341971082
  C        13.1474794109       -0.2583733133       -4.2168697310
  H         5.7574600489        8.3873470554       21.7987903448
  H         5.8118909442        9.8969104689       21.0086895757
  C         7.6873075684        9.0421593342       21.7281868176
  H        19.3449212972        5.4351960802        8.0525345749
  H        18.8993203702        6.7985202388        7.1052236875
  C        20.1071677681        5.4223076874        6.0291278303
  H         3.0690453403        8.7453142242        0.9904408833
  H         2.1465300284        8.4946751326        2.4461249336
  C         3.8685997068        9.8925185261        2.5305703135
  S        13.6189045803        1.3913594562       -4.6979937239
  C        13.2121019746       -1.1074747292       -5.4267902798
  H         8.3382158879        8.3828822697       21.2889828908
  H         7.7643306991        8.6746700204       22.7955950392
  H         8.0972359748       10.0673032368       21.6173621577
  H        19.5711909627        5.2214553748        5.1156203975
  H        20.6259515983        6.3346198708        5.6972144695
  H        20.8045781513        4.5951086749        6.2753586480
  H         4.1903255157        9.7438622889        3.5604017957
  H         4.6742574432       10.0285587169        1.8651303627
  H         3.1344167839       10.7397714455        2.4622765984
  C        14.1482013815        0.7554775326       -6.2307583475
  N        13.9363217546       -0.5502780516       -6.3949686572
  O        12.8408403971       -2.2477739199       -5.3639651519
  S        14.6602609183        1.7268411307       -7.6455352586
  C        14.0954467470       -1.1653458738       -7.6465827583
  H        14.2249081105       -2.3252112264       -7.4102156842
  H        15.0366282816       -0.8411987017       -8.1994970250
  C        12.8315510197       -1.1087390188       -8.5473589516
  H        12.7526318522       -0.2459108237       -9.2819718790
  H        11.9808465160       -0.9470811308       -7.8852798525
  H        12.6386376739       -2.0204100536       -9.0834408130
  H        -3.1268643585       14.8961087188       16.2872761698
  C        -2.8893088151       13.8370072605       16.4399490876
  H        -3.8302564269       13.4173683115       16.8231734196
  C        -1.8324926365       13.6762683678       17.6039345817
  C        -2.5545875792       13.1958481517       15.1898087109
  C        -2.5530111038       13.7237237272       18.9309356698
  H        -1.3243625906       12.6699395503       17.3894637129
  H        -1.0620631839       14.4506104736       17.5928798053
  H        -2.6283662990       12.0815658667       15.2812778215
  H        -2.9698872048       13.5300505730       14.2243733500
  H        -1.4029864646       13.2909306343       15.1047406185
  C        -1.5182653839       13.5938493935       20.0436098425
  H        -3.3101250800       12.9028941879       18.8934466355
  H        -3.0799758789       14.5982438884       18.8077422596
  C        -2.0559580289       13.5361264148       21.3935481640
  H        -0.8684439847       12.7624528900       19.7040269353
  H        -0.8661187820       14.4178017161       19.9532971862
  C        -1.1520784290       12.7263664154       22.3034579937
  H        -2.9273248352       12.9233263671       21.3294139795
  H        -2.1349692109       14.5039700203       21.8657424717
  C         0.0902052434       13.5711671621       22.6471492324
  H        -1.8407536288       12.4644890859       23.2093326046
  H        -0.6729364503       11.8146716748       21.8823011202
  C         1.2583247808       13.0110206249       23.4581308144
  H         0.5490784430       13.8367039156       21.6971376955
  H        -0.1491602787       14.5933160345       23.0604438945
  C         1.6484840527       11.6449695401       22.7533022156
  C         0.7816266219       12.2840451744       24.6725844906
  C         2.5347324208       13.9795857864       23.6788113383
  C         1.2393520463       10.4873478626       23.4554080560
  C         2.2014381701       11.3059992105       21.4782693031
  C         0.6910698827       10.9070115087       24.6771707091
  C         0.2740966941       12.9551260564       25.7436462259
  H         2.5970808917       14.4550363511       22.7590168175
  H         2.1650053935       14.6740446303       24.4755964857
  C         3.6968067376       13.2441476177       24.1603531135
  S         1.7612743708        9.0158242337       22.7336185172
  C         2.2357396826        9.8752787413       21.3527292736
  H         2.4154126390       12.0986458948       20.8007296456
  C         0.2362155631       10.3190812966       25.7797082329
  H         0.3888359429       14.0435308690       25.6880433091
  C        -0.0313779514       12.3600160116       26.9025231658
  H         3.9247312849       12.4097227631       23.4478187215
  H         3.4947817868       12.7828180668       25.0844945967
  C         4.9379024467       14.1425576356       24.2353783730
  C         2.8198584326        9.1995163913       20.1058846690
  C        -0.2274102862       11.0109100101       26.9192714862
  H         0.2635617859        9.3142353390       25.8447247248
  C        -0.5192764541       12.7880466149       28.1239999413
  H         5.6179489559       13.6435679876       24.9080135073
  H         4.5735261523       14.9704849312       24.8111878813
  C         5.5277283933       14.5600690172       22.8251952364
  C         2.7614703980        7.8296166427       19.7870575336
  C         3.4002725196       10.1342217238       19.1457600497
  C        -0.5635250588       10.3890476937       28.1670566654
  C        -0.7171148340       11.7120063437       28.9163377936
  S        -0.8559761615       14.3271648276       28.8491135291
  H         6.1234202709       15.4431845384       22.9090912877
  H         4.7481339864       14.9886819879       22.1339563901
  C         6.3538540322       13.5298606434       22.0624215538
  N         2.3389005453        6.8332069385       20.6804400100
  C         2.9929388919        7.3506946779       18.5172001032
  C         3.6536140512        9.7113731094       17.8613911271
  H         3.8570822244       11.0623103985       19.3794403314
  C         0.6507382202        9.5518408809       28.8455660265
  C        -1.8756465602        9.5628367519       28.1676307074
  C        -1.1294458936       12.1840552312       30.1844393197
  C        -1.1197996680       13.5351506517       30.3512911418
  H         7.2464424623       13.2978797334       22.6298205012
  H         5.9024946157       12.4770667020       21.9123398173
  C         6.7725371895       13.8999740586       20.6064378276
  S         2.4775139996        5.3792464392       19.9298655557
  N         3.0590124914        5.9768374816       18.5086233848
  C         3.3826358243        8.1951505849       17.4897669610
  H         4.0859684076       10.3780365136       17.0895749101
  H         0.8227884616        8.5970292431       28.2905046781
  H         0.3263455109        9.1925222896       29.8580764810
  C         2.0545114843       10.1780200394       28.9710405577
  H        -1.7376291503        8.8505566897       27.4018500047
  H        -2.0366274089        8.9843418925       29.0865200455
  C        -3.0930493183       10.3845520471       27.6627281801
  H        -1.3434231912       11.3330859902       30.9222785555
  C        -1.4345474193       14.2550303651       31.6057340750
  H         7.0789668553       14.9030283178       20.6212880090
  H         5.8839662064       13.8644706903       20.0621639946
  C         7.7956245728       13.0446951782       19.9464700324
  C         3.5340409506        7.5498724201       16.2138496754
  H         2.5010102401       10.6195870414       28.0808333994
  H         1.9565284787       10.9513766567       29.7044580929
  C         3.0841419809        9.2184654623       29.5583613993
  H        -2.6833703445       10.8874385264       26.7988738286
  H        -3.2300701738       11.1409693741       28.3276922795
  C        -4.3078045213        9.5461959757       27.2144090118
  C        -1.4893220613       15.6973347216       31.8223335534
  C        -1.7834169174       13.4150133379       32.8585347737
  H         8.8031104289       13.3802284378       20.3936462811
  H         7.6130219039       11.9366604150       20.2352753931
  C         7.8678663504       13.3509477081       18.4091088529
  H         3.9500470602        6.4940206170       16.2811834627
  C         3.7492153480        7.9656220978       14.9436809855
  H         3.6104338602        8.6709066757       28.6910785107
  H         2.5855980809        8.4689539540       30.2700864361
  C         4.1551557103        9.9071796335       30.4465011477
  H        -4.0408111240        8.7508060714       26.6019662979
  H        -4.7090592844        9.1570023587       28.2066944130
  C        -5.3809781833       10.4090525646       26.5218936963
  N        -1.1775046962       16.6175526480       30.8974011358
  C        -1.8802083564       16.3098388281       32.9923738465
  C        -2.2387498673       14.1119411223       33.9380268379
  H        -1.5837273008       12.3748795616       32.8012050738
  H         6.8402843672       13.5494652295       17.9862169084
  H         8.5018369471       14.1097349546       18.0893997203
  H         8.2105546665       12.5281068496       17.9736381554
  S         3.9460523593        9.5902592539       14.4745815471
  C         3.9042927485        6.9114805781       13.8425945438
  H         4.4156614387       10.6994473763       29.7208041095
  H         3.7623369765       10.4202712087       31.3550184486
  C         5.4589693502        9.0625925938       30.7092755427
  H        -5.0005857388       10.7997415976       25.6199479001
  H        -5.5619657153       11.1662209907       27.2331804984
  C        -6.6477916714        9.8007757373       26.3005616613
  S        -1.3299717603       18.1497455577       31.4507102922
  N        -1.7991975643       17.6849080340       32.9080239618
  C        -2.4346517975       15.5815302228       34.0487144107
  H        -2.2773223946       13.6321026557       34.8774035721
  C         4.1978652885        8.8682070675       12.8488014786
  N         4.2438237894        7.5731163620       12.6715883757
  O         3.6183944868        5.7704454084       13.9774684734
  H         6.1899785275        9.7027326085       31.2689075358
  H         5.8291424996        8.8240188650       29.7351245101
  C         5.1525347564        7.7143803341       31.3930589467
  H        -6.5512459242        8.9897151859       25.6560696198
  H        -7.1688415631        9.3433551580       27.2507972195
  C        -7.5659755667       10.7181972654       25.5602981366
  C        -2.7747985499       16.2839236319       35.2028251665
  S         4.6127190239        9.8731359094       11.5286565364
  C         4.1264580486        6.8490793508       11.4122257968
  H         5.4298230846        7.8372734289       32.4710600991
  H         4.0905668407        7.5426962966       31.3526421325
  C         5.8812338658        6.5854133521       30.7121663358
  H        -7.2170809962       11.3019456058       24.6834088034
  H        -7.8400439101       11.5340029391       26.2276441351
  C        -8.7996423441       10.0598425915       25.2038047008
  H        -2.5270721505       17.2840356916       35.1189710272
  C        -3.2572435376       15.9542220824       36.4084959250
  H         5.0027982229        7.0915378930       10.7174313055
  H         4.4202572001        5.8175909795       11.5836812923
  C         2.7184073983        6.9178754958       10.6561670626
  H         6.9147136774        6.7643594484       30.8868311459
  H         5.6041328423        6.5749704030       29.6215659724
  C         5.4341913210        5.2923093161       31.4099540998
  H        -9.2173888259       10.6601449334       24.3622802059
  H        -8.7278409632        9.1334084825       24.8521007175
  C        -9.7753083904        9.9636179366       26.4386133302
  S        -3.6325236501       14.3241966117       37.0053404541
  C        -3.3929705327       17.0490387010       37.4141518724
  H         2.7166515551        7.6669503149        9.8173942710
  H         2.4798830460        5.9819403823       10.1140954353
  H         1.8023021625        7.2158063956       11.3231814602
  H         6.0165448200        4.5553378998       30.9252963895
  H         4.4235263078        4.9733038812       31.3397093117
  H         5.6827214550        5.4605609502       32.4549137241
  H       -10.6859200786       10.2570802083       26.1057859211
  H        -9.3862269413       10.5134735830       27.2625443768
  H        -9.7728777539        8.9893124869       26.8467767068
  C        -3.9384607877       15.1562041308       38.4810070789
  N        -3.9077689200       16.4593407558       38.5498492196
  O        -3.0478003380       18.2530157508       37.2682319096
  S        -4.6603680157       14.4149360927       39.8192756169
  C        -3.9933236766       17.3575881721       39.7838656138
  H        -4.2426640736       18.4252461590       39.5580342462
  H        -4.7115948342       16.8888078207       40.4581607964
  C        -2.6945635576       17.3178127001       40.5671925080
  H        -2.9412784069       16.9604622206       41.5702886473
  H        -2.0654135799       16.5287281901       40.1465460346
  H        -2.3104173543       18.3716714388       40.7401939216
