352
i=
  H         4.6957718330        1.7589425609       12.0642296239
  C         3.9425350655        2.5842709077       12.2988780453
  H         4.4890162816        3.5661709081       12.3243427786
  C         3.0749903723        2.5162195681       11.0788343678
  C         3.2067029652        2.3273484008       13.6062414073
  C         3.8719438770        2.7157848261        9.7880169264
  H         2.1938024335        3.1406829425       11.0963823470
  H         2.6775250724        1.5316777315       11.1886953911
  H         3.8796380603        1.7592353838       14.3549461346
  H         2.3413326967        1.6659419861       13.4599662166
  H         2.9011764339        3.2483242576       14.0408200239
  C         4.5940513830        1.4378260240        9.1759448383
  H         3.1752293742        3.2715265136        9.1442728709
  H         4.5762942502        3.5091776902       10.0166749480
  C         5.5616807385        1.6114250584        7.9806463251
  H         3.8016834384        0.7579499368        8.8192952604
  H         5.1632079907        1.1051098246       10.0263292650
  C         6.8018095217        2.5262591307        8.1399014060
  H         4.9786090995        1.8757212198        7.1436633448
  H         5.7570575747        0.6180666162        7.6441093330
  C         7.9709484317        1.8327940343        8.8195801165
  H         7.1510046296        2.8277526769        7.1797501487
  H         6.4181330539        3.4024100782        8.7585443960
  C         9.1225002909        2.8267711674        9.0764297700
  H         8.4879010905        0.9481228602        8.3516071739
  H         7.5840255143        1.3810487897        9.7395947669
  C         8.7213077546        4.1797596829        9.7315253920
  C         9.5941331187        3.5219782608        7.8008436223
  C        10.2791525410        2.1037428371        9.8840590079
  C         8.9792459161        5.2884253506        8.9526988594
  C         8.3085213601        4.5238302188       11.0399256307
  C         9.4965444030        4.8865757656        7.7428966169
  C        10.1265850417        2.9502015211        6.6284924598
  H         9.8736380533        1.7442966235       10.8494751888
  H        10.3837800035        1.1412299121        9.3964188378
  C        11.4809989115        3.0156833151       10.0665432043
  S         8.5118541569        6.7914843800        9.6801211685
  C         8.0627005560        5.8797317146       11.1437286657
  H         8.0928447311        3.8355780108       11.7664521418
  C         9.8823619947        5.5294932178        6.5894733084
  H        10.1639479288        1.8934871345        6.7261461918
  C        10.4918338665        3.5675027291        5.4978968975
  H        11.1276884219        4.0548339131       10.2143247582
  H        12.1077298465        3.0042901958        9.1701058303
  C        12.0892106096        2.5785301011       11.4617311572
  C         7.4707078172        6.5611230537       12.3841386491
  C        10.3570936850        4.9331139632        5.4509930064
  H         9.8688481575        6.5923370868        6.5733787987
  C        10.9423539038        3.1630497909        4.2269634855
  H        13.1315634092        2.7839497628       11.4601894159
  H        12.0536279291        1.4178613809       11.5574998190
  C        11.3935008000        3.1560547481       12.6699638749
  C         7.4280389682        7.9100026282       12.6759322354
  C         7.1089602855        5.6753325836       13.5003111713
  C        10.7457485380        5.6580984591        4.2324231730
  C        11.0046585526        4.3203132845        3.4150165899
  S        11.1265576187        1.7167030105        3.4551187335
  H        11.9676185486        4.0672814364       12.9143632038
  H        10.4347867032        3.5921173139       12.3903891416
  C        11.1671193587        2.2515918260       13.9500127772
  N         7.6869322205        8.9540238115       11.7362894055
  C         7.2687918528        8.3815768114       13.9499431526
  C         6.8889121746        6.1331912007       14.8279575662
  H         7.0662117066        4.6555293322       13.2735950537
  C        12.0170123716        6.4231236565        4.4773181668
  C         9.5605826158        6.4729767834        3.5756521930
  C        11.3435627966        3.9636633872        2.1182545374
  C        11.4263621978        2.6140652580        1.9542381435
  H        11.1957817552        1.2745968912       13.6005491182
  H        10.1700723824        2.3878533221       14.3561455102
  C        12.1738764646        2.3440560450       15.1325824564
  S         7.4384898018       10.3910124048       12.4678516678
  N         7.2612128189        9.7882627219       14.0196556031
  C         7.0007888795        7.5911219952       15.1058740279
  H         6.6291013540        5.4266855142       15.6382545793
  H        11.7413412704        7.2447005909        5.1072357642
  H        12.1064976757        6.8986763378        3.4631699221
  C        13.1921965111        5.5776991218        4.9939899005
  H         9.1770330182        7.2794388633        4.2682030096
  H         9.9752223481        6.9351764245        2.6936326923
  C         8.4067892143        5.5179125618        3.2266045836
  H        11.3837171386        4.7141706499        1.3125133945
  C        11.7000819454        1.8965075091        0.6202578610
  H        13.2008688348        2.2858615376       14.7619469108
  H        12.1075089250        3.3440063457       15.5003608522
  C        11.9909225509        1.3776745348       16.3612773278
  C         6.9286549825        8.2438724787       16.3800496839
  H        12.9054403114        5.1052248125        5.9389136781
  H        13.4082745965        4.7809174078        4.2817913341
  C        14.4654200842        6.4131785388        5.2576089233
  H         8.1900337742        4.7732836171        4.0033453884
  H         8.6342806254        4.8675170499        2.2985813494
  C         7.1067877004        6.3111577555        2.9476112995
  C        11.9485885421        0.4860063272        0.6130784551
  C        11.8686897359        2.5858347180       -0.6619945581
  H        11.9803567783        0.2965847386       16.0056021122
  H        10.9874522575        1.5340106328       16.7736785902
  C        13.1539779230        1.6990324656       17.3397002657
  H         6.9066434157        9.3216416652       16.3255792739
  C         6.5615075940        7.8092480305       17.6538817772
  H        14.3645965492        7.1100838777        6.0850656144
  H        14.8075863350        6.9183723311        4.3268475853
  C        15.6342975628        5.4416728969        5.5855948373
  H         7.0303399271        7.0002397106        3.7436393525
  H         7.1221456869        6.8992497778        1.9877675641
  C         5.9114008238        5.3208532419        2.8887930973
  N        11.7590161544       -0.3821028501        1.6414724671
  C        12.2784377607       -0.1491627291       -0.5180049778
  C        12.2886499511        1.9310113096       -1.7907809395
  H        11.6729194171        3.6874896026       -0.6830178825
  H        13.0980177165        2.7594615022       17.7415581489
  H        14.1497332761        1.7836635963       16.8172156349
  H        13.2735291662        1.1613798888       18.2938712586
  S         6.3294344659        6.1987860646       18.0482913207
  C         6.5041938819        8.7174170069       18.8163486133
  H        15.2275602472        4.5601123674        6.0310375233
  H        16.1982038263        5.1721756001        4.7220125404
  C        16.6080989786        6.0658505394        6.5677930056
  H         5.5137596103        5.1273684032        3.8465155750
  H         6.2610605008        4.3683413409        2.5625866731
  C         4.7452125213        5.7798492562        2.0283932064
  S        12.0002684360       -1.9068201960        1.1496419072
  N        12.3562235606       -1.5092711780       -0.3900301922
  C        12.3878916492        0.4509168484       -1.7991718560
  H        12.4195314083        2.5765927446       -2.6964519142
  C         6.1799358426        6.6777098733       19.6976520844
  N         6.1660325397        8.0361575375       19.8766694560
  O         6.6504687091        9.9600740518       18.6393424072
  H        16.9603435872        7.0370185727        6.1599281108
  H        16.0812890674        6.4553667748        7.4362907403
  C        17.6923086482        5.0966079684        7.0978998742
  H         4.9025262660        5.8188548117        0.9229189613
  H         3.8875227257        5.1009530447        2.1994659798
  C         4.2398734573        7.2045622964        2.4739840490
  C        12.6262661372       -0.3260389328       -2.9731397096
  S         5.9277500800        5.7175237127       21.1336324770
  C         5.8758366689        8.7562235771       21.1238800666
  H        17.3961604432        4.8055784475        8.0279281330
  H        17.8560950492        4.1907785517        6.5083692852
  C        19.0344578630        5.8868091211        7.2217725597
  H         4.5760140426        7.4649485670        3.4421925311
  H         3.1653314438        7.0955143391        2.4512411341
  C         4.7602977046        8.4101262680        1.5543272499
  H        12.2556957404       -1.3607415328       -2.9468161381
  C        13.1333732512       -0.0825925065       -4.1595248584
  H         4.9601589229        8.4298028632       21.5832099538
  H         5.7395894915        9.8766333363       20.9085946857
  C         7.0522391083        8.7298278817       22.0794388065
  H        19.5658281790        5.3679040744        8.0514956629
  H        18.8906265972        6.9951115198        7.3227011060
  C        20.0221045944        5.6569118893        6.0616577597
  H         5.6913952818        8.7492272889        2.0344642787
  H         4.9658993631        8.1449818901        0.5714625084
  C         3.7766714096        9.6239913629        1.5871146228
  S        13.8843095888        1.3859678127       -4.6873646819
  C        13.1534606503       -1.2266436965       -5.1495226448
  H         6.7492337717        8.4237539157       23.0691748380
  H         7.4806770062        9.7404002344       22.1691454753
  H         7.9060039947        8.0268820183       21.7848761568
  H        20.3811814024        4.5921002038        5.9422170094
  H        19.5112842181        5.9225492679        5.1801356891
  H        20.9320108299        6.2550390505        6.3030616904
  H         3.3217958809        9.7822679253        2.6420116241
  H         4.4100705171       10.4246169268        1.2483112403
  H         3.0566140687        9.5253799569        0.8331833852
  C        14.1009393409        0.5996023203       -6.2036075469
  N        13.6709390211       -0.6837270655       -6.3012008643
  O        12.7094075564       -2.3428109230       -5.0354562038
  S        14.4419538427        1.3662838686       -7.7712313808
  C        13.7519665601       -1.5440001650       -7.4980486853
  H        13.7429112718       -2.5976141010       -7.3111214757
  H        14.6738514692       -1.3654660407       -7.9338686124
  C        12.6294011999       -1.2124922425       -8.4866992415
  H        11.6570426424       -0.8471593403       -8.1246289090
  H        12.4761877790       -2.2566881820       -8.7438714857
  H        12.9281766798       -0.6134168436       -9.3204841617
  H        -1.1159153582       14.1192800414       15.6584445054
  C        -2.1580157726       14.3258789904       15.8180700218
  H        -2.3838247846       15.2029262610       15.2441435605
  C        -2.3435308174       14.3938775070       17.3567634304
  C        -2.9299146882       13.1961379861       15.1358743996
  C        -2.0978264700       13.0126628533       18.0493653546
  H        -1.7134420404       15.0968562936       17.8507519315
  H        -3.3817718970       14.7155293400       17.5319991863
  H        -2.4527486723       12.2281954597       15.2025128580
  H        -3.9408532102       13.0640725972       15.4827706649
  H        -2.9371429728       13.4267134248       14.1052791433
  C        -1.2260814235       13.0920418907       19.3106291815
  H        -1.6834949612       12.2716811078       17.5077194108
  H        -3.0659641998       12.6430619644       18.1911052642
  C        -2.0446141577       13.4519562029       20.5125169842
  H        -0.6741410253       12.1303351981       19.4943491469
  H        -0.4547380420       13.7839536707       19.2446799521
  C        -1.3784988986       12.8606305161       21.7264714107
  H        -3.0105089602       12.9856127508       20.3001289738
  H        -2.3145072725       14.4689755232       20.6499968499
  C        -0.2002193444       13.6573886064       22.1068145568
  H        -2.0239217579       12.8790377441       22.5663581401
  H        -1.0906005367       11.8390203661       21.5148919182
  C         0.9478332924       12.8633022240       22.8687307617
  H         0.1948991296       14.1150020800       21.2811310465
  H        -0.5787778530       14.4224785925       22.8093510602
  C         1.3996213000       11.5568582217       22.2027860120
  C         0.4372130212       12.1522464628       24.1304411137
  C         2.1122473356       13.8321083024       23.2760990077
  C         1.1397473248       10.4712167183       22.9700922539
  C         1.9955404693       11.2183806825       20.9771604998
  C         0.5713642964       10.8278246284       24.2133764208
  C        -0.0527186430       12.7628149160       25.2899558277
  H         2.4172458147       14.2852334783       22.3086235552
  H         1.7991532560       14.5406582191       23.9879163299
  C         3.3491185387       13.1634134895       23.9078640518
  S         1.5546288266        8.9545291691       22.2754790795
  C         2.0632874245        9.8903055363       20.9070544242
  H         2.3765338413       11.9719059463       20.3131562084
  C         0.1466622605       10.1854000096       25.3024387917
  H        -0.0224851542       13.8212263909       25.3619520456
  C        -0.4031062331       12.0555511758       26.4683378419
  H         3.7783653470       12.4465126262       23.2289872781
  H         3.0223442191       12.6501403069       24.7866201188
  C         4.3530801693       14.1383143393       24.4312740906
  C         2.6148613871        9.2076086048       19.6802011323
  C        -0.3297622866       10.7520867696       26.4927939196
  H         0.0997769766        9.1148482095       25.1942160001
  C        -0.7638865366       12.3904777714       27.7611844163
  H         4.9694265613       13.4363040771       25.0563260810
  H         3.9929740954       14.8245303726       25.2308840501
  C         4.9930343927       14.9352582410       23.3404972016
  C         2.7734691942        7.8187885932       19.4586804375
  C         2.7896509983       10.0338814676       18.4599862025
  C        -0.7006320180        9.9744367637       27.7166551439
  C        -1.0112469043       11.2318540365       28.5020176799
  S        -1.0670348485       13.8098506389       28.6628884756
  H         5.7765691483       15.5711682188       23.7534645530
  H         4.3991954024       15.6246943005       22.7386464351
  C         5.6974778793       14.0259194715       22.3803516558
  N         2.6811641736        6.7941408954       20.4094800027
  C         3.0424968944        7.2068238672       18.2145862141
  C         3.0456544466        9.4499274988       17.1868562157
  H         2.6308034181       11.1286039841       18.5297998013
  C         0.6733808243        9.2554851357       28.2044558183
  C        -1.9310539987        9.0108596850       27.4948019354
  C        -1.3100061711       11.5108139732       29.8470811529
  C        -1.3922397177       12.8916114538       30.0722224305
  H         6.6772051871       14.4546382091       22.3603190086
  H         5.7433328728       13.0300730781       22.8320367131
  C         5.1043115499       13.9901263891       20.9623240955
  S         2.7443497505        5.3093226449       19.7285297811
  N         3.0095825403        5.8232270971       18.2272162718
  C         3.2297938164        7.9810204626       17.0029812541
  H         3.0004921102       10.0726493213       16.2770887577
  H         1.1806441555        8.6540866492       27.4312810950
  H         0.4101069883        8.5603637255       28.9882091127
  C         1.8211550096       10.1303544161       28.7217391823
  H        -1.7980959883        8.3782708891       26.6413818514
  H        -2.0747842791        8.3143051531       28.2614764242
  C        -3.2105831153        9.7569198567       27.2855205760
  H        -1.4056922439       10.7144382624       30.5103166368
  C        -1.5911749193       13.6729237256       31.3920766016
  H         5.1984442544       14.9750827084       20.5285928866
  H         4.1068042431       13.7120952395       21.1132579887
  C         5.7970358757       13.0885522222       20.0710901614
  C         3.5197365169        7.3211920908       15.7694427999
  H         2.2087771383       10.7354657746       27.9235911576
  H         1.3876067368       10.8799102461       29.3256290692
  C         2.9120837191        9.3934832192       29.4372244329
  H        -3.0048145833       10.6381918042       26.6089212321
  H        -3.4908173265       10.1301127910       28.2541671506
  C        -4.2808678785        8.8568747022       26.7231386234
  C        -1.6171627180       15.1139242472       31.5987087320
  C        -1.7213831367       12.9153105366       32.6959750787
  H         6.1733257746       12.2976009033       20.7361002351
  H         5.0944906963       12.7149546368       19.3325898875
  C         7.0829963307       13.6470338270       19.4123151110
  H         3.0019070993        6.3443120537       15.7403638397
  C         3.7764977622        7.7370713598       14.4652347282
  H         3.3626642450        8.7373858017       28.6914173873
  H         2.6332695106        8.8800521356       30.3174390192
  C         3.9958408168       10.3256096381       30.1130767983
  H        -3.8638950798        8.6514430562       25.7100576903
  H        -4.4749406855        8.0767814517       27.4036036771
  C        -5.4869818850        9.7244795983       26.5689959004
  N        -1.5258698008       16.1160198265       30.6052877393
  C        -1.9292845316       15.6269303917       32.8206758261
  C        -1.9415566914       13.5119045861       33.9521939872
  H        -1.7685522588       11.8870117450       32.6558330051
  H         7.8460556138       13.4854796678       20.2023352754
  H         7.4145163435       13.0348645848       18.6142077444
  H         7.0522940658       14.6630823812       19.2372692531
  S         4.0770333919        9.3829578914       14.0159851777
  C         3.8952155294        6.6735603072       13.4888200075
  H         3.8666650883       11.3666778121       29.8492192937
  H         3.8077182670       10.4272265299       31.1678906187
  C         5.4069869561        9.9344547768       29.9181720836
  H        -5.5313845634       10.4281420483       27.3305709128
  H        -6.4167756858        9.2292671317       26.6132313464
  C        -5.4684044041       10.3785809918       25.1789234405
  S        -1.5626304948       17.6289241262       31.2969921610
  N        -1.9469256506       17.0213660148       32.7992241322
  C        -2.1072032755       14.9241019645       34.0458218106
  H        -1.9832401850       12.8862860384       34.8229003775
  C         4.0912741502        8.7479750532       12.4199495350
  N         4.0581334737        7.3779105588       12.3573294404
  O         3.5890524111        5.4805313112       13.6483768183
  H         6.0826902878       10.7822515181       29.9271949698
  H         5.4996395823        9.5287318436       28.8994076312
  C         5.8374290528        8.9059022614       30.9633947848
  H        -4.5423168615       10.9615304590       25.0323670125
  H        -5.4476392754        9.5928890838       24.4665647501
  C        -6.6570195968       11.2357169100       24.8577146317
  C        -2.3583146509       15.6225136634       35.2120202630
  S         4.4554745965        9.6226787237       10.9299257038
  C         3.7833993549        6.7197151715       11.1265341069
  H         6.9259042790        8.9934029372       31.1515863975
  H         5.3699266689        9.1662083142       31.8972138630
  C         5.5590094319        7.5102842851       30.5065836658
  H        -6.5495292089       11.8314688870       24.0026344679
  H        -6.9220340315       11.9400109813       25.7013259338
  C        -7.9985546085       10.4500276891       24.8063531420
  H        -1.9637249053       16.6295399974       35.1120048734
  C        -2.8241528132       15.3122582908       36.4552387331
  H         4.4259003783        7.0456872427       10.4002936305
  H         4.0229831609        5.6804833308       11.0503040503
  C         2.2875701636        6.8092070561       10.7787578593
  H         5.1122018434        7.5575586168       29.4730567144
  H         4.9391663932        7.0220864982       31.2879248687
  C         6.7926982516        6.6084486550       30.4101628467
  H        -8.4478185417       10.3822281904       23.8112979919
  H        -7.8844176483        9.3813839615       25.0674808747
  C        -8.9307456309       10.9733292619       25.8821982165
  S        -3.4964212898       13.8352407569       36.9900692844
  C        -3.0591342934       16.3884304572       37.4254339020
  H         2.1055274996        6.3048857818        9.9051418724
  H         1.7518700655        6.5182765353       11.6613522973
  H         2.0352495801        7.8264447552       10.5663399855
  H         7.7344929154        6.9804101986       29.9669670727
  H         6.4677364553        5.7219514234       29.9216396217
  H         7.2395846542        6.3965556311       31.3861862209
  H        -9.7637965020       10.2733421152       25.8538619782
  H        -9.3086441971       11.9848079277       25.7705729152
  H        -8.6725286561       10.8619618499       26.8751018063
  C        -3.9043717479       14.5090833160       38.5192772433
  N        -3.7068274998       15.8527025123       38.5178840696
  O        -2.7319144555       17.5739119499       37.2133924193
  S        -4.8298885102       13.7631349146       39.7839162658
  C        -3.9807057407       16.7579889418       39.6892876585
  H        -4.3157090041       17.7532425461       39.3281007857
  H        -4.7941702408       16.3570163263       40.3158427754
  C        -2.6904351950       16.9336938955       40.4720005115
  H        -2.6876423897       17.8500363607       41.0323517615
  H        -2.5187709524       16.0770559294       41.1160984301
  H        -1.7848597602       16.9759426351       39.7726148106
