352
i=
  H         4.3680906151        1.8301961442       13.2359530127
  C         3.6890903701        2.6244541043       12.9071332502
  H         4.2450553405        3.5142379393       12.9699170059
  C         3.0345771444        2.4511176382       11.5404634149
  C         2.6958262004        2.8384305511       14.0481360126
  C         4.0416522746        2.6528476485       10.4043409351
  H         2.1373833199        3.0795147659       11.4777955260
  H         2.6758012119        1.4671157532       11.5461187712
  H         2.3146360745        1.7578759631       14.1713434015
  H         1.8872579137        3.5875648627       13.8161665651
  H         3.2049188885        3.2088047287       14.9488320134
  C         4.5133858070        1.2749149786        9.8319434442
  H         3.5558008097        3.2264721381        9.6650869465
  H         4.8623136199        3.2762186571       10.6939732236
  C         5.4912870122        1.3789439173        8.6475933640
  H         3.7406312422        0.5581154327        9.6775970707
  H         5.0196945037        0.8551950670       10.6938512892
  C         6.6860864373        2.3968387200        8.6537790824
  H         4.9071373636        1.7319822605        7.7733240653
  H         5.9245094013        0.4201121619        8.4475167546
  C         8.0034841381        1.7168036105        9.1461222977
  H         6.8010637420        2.7052891526        7.6272207678
  H         6.4244815230        3.3956500895        9.1362457302
  C         9.2189375637        2.6848054305        9.3339665828
  H         8.3937999774        0.8109568753        8.5299466921
  H         7.9216220541        1.2889567233       10.1016735399
  C         8.7920081515        4.0077465636       10.0678291008
  C         9.5916851751        3.4161984120        8.0964166780
  C        10.4081290381        2.0810879366       10.1343023204
  C         8.9229604196        5.0875726375        9.2325297931
  C         8.3912151763        4.3367458012       11.4127193603
  C         9.4134905011        4.7348640990        7.9649528966
  C        10.1320883830        2.9282529504        6.9501885181
  H         9.9705032728        1.5533502614       10.9608083048
  H        10.8567081815        1.1982164242        9.5842485894
  C        11.7061620983        2.9723356953       10.3435708968
  S         8.4497807119        6.5384101575       10.0252436380
  C         7.9777728174        5.6426666978       11.4414219346
  H         8.3118025287        3.5766200451       12.1688924944
  C         9.7664075938        5.4020129944        6.8386572810
  H        10.5138047166        1.9187358627        7.0744065235
  C        10.4769879998        3.5755324947        5.7897026040
  H        11.5134057500        3.9850552145       10.4301725614
  H        12.3200580930        2.7279409387        9.4107773303
  C        12.6655417696        2.6097176499       11.4087142973
  C         7.5073132917        6.3583884791       12.6425163037
  C        10.3610409027        4.8865506253        5.7061486956
  H         9.7062246170        6.4920621120        6.8195484684
  C        10.9584361318        3.2470856656        4.5622668770
  H        13.4736108935        3.2790252134       11.5089250286
  H        13.0081706212        1.5965750425       11.2259813584
  C        12.0730660387        2.3634092369       12.7381224449
  C         7.4212078341        7.7926865216       12.8889531847
  C         7.2313348858        5.5293639048       13.8078777962
  C        10.7676684282        5.6545554261        4.5357583800
  C        11.1591160229        4.4062124823        3.7269826953
  S        11.0673015710        1.7539864807        3.7200923263
  H        11.5597759017        3.2637013400       13.0658379689
  H        11.3775476439        1.5120584511       12.7130879558
  C        13.1503746266        2.0994944316       13.7813610518
  N         7.7451628557        8.7743832825       11.9914134350
  C         7.0952625840        8.3842099418       14.1257702588
  C         6.7816006227        6.1217428345       14.9654092142
  H         7.2605556573        4.4888437398       13.8168632877
  C        12.1474059021        6.3957136436        4.8148414467
  C         9.8087405958        6.5610950123        3.8007310479
  C        11.6385013688        4.0239578711        2.4184398978
  C        11.5117499675        2.5890624560        2.2995382937
  H        14.0005294699        2.7491614337       13.6839861813
  H        13.5240004720        1.1064528530       13.5919634679
  C        12.5031546035        2.1844058226       15.2134851602
  S         7.7356234723       10.2635294463       12.7453207445
  N         7.2645599021        9.7452424133       14.1628448539
  C         6.7388955806        7.6078264193       15.2121805952
  H         6.3193967584        5.6055896172       15.7230994953
  H        12.0488612599        7.0104100456        5.6746217157
  H        12.3157135719        7.1147144684        4.0235478788
  C        13.4185458315        5.5564316366        4.8992748033
  H         9.6830533778        7.3100124853        4.4737300568
  H        10.2634236374        7.0287729363        2.8520833099
  C         8.4526157458        5.7794315156        3.5044779221
  H        11.8667956119        4.8208310751        1.6766742778
  C        11.7969883114        1.9213580974        1.0211775426
  H        11.9728393500        3.0767696933       15.3183411085
  H        11.7944543944        1.3765814573       15.3443637106
  C        13.5938382484        2.0527033304       16.2936211835
  C         6.5322215725        8.3337555906       16.5235955043
  H        13.2913055241        4.6502226298        5.5081260936
  H        13.6445768202        5.1478028316        3.9225843535
  C        14.5815473779        6.3725499283        5.3400612282
  H         8.0763635115        5.3791842749        4.4161505842
  H         8.7058510302        5.0145902580        2.7201679364
  C         7.3383096387        6.6933880059        3.0129959278
  C        11.8009696714        0.4930431226        0.7859815499
  C        12.0558292044        2.6792535838       -0.1940999826
  H        14.4690935369        2.6795449699       16.0300305356
  H        13.7247041962        0.9788082509       16.2176174430
  C        13.1128877388        2.4399200426       17.7746225792
  H         6.7832116923        9.3875894803       16.5276472028
  C         6.2557433613        7.8575161505       17.7827797493
  H        14.3848283886        6.8084420468        6.2783810946
  H        14.6251022933        7.2322303397        4.6591414785
  C        15.9261387488        5.5476593880        5.2395472204
  H         7.1700321561        7.4378381559        3.8264242830
  H         7.7190686152        7.1733696706        2.1480647547
  C         6.1260861966        6.0344582455        2.4729413626
  N        11.6481378093       -0.5052403984        1.6665761709
  C        12.0987980052       -0.1372124591       -0.4250199132
  C        12.2877938685        2.0155414053       -1.4405073438
  H        12.1659441504        3.7432420942       -0.1172249371
  H        14.0528101722        2.9431464499       18.2500579698
  H        12.7984581075        1.5131075430       18.3049869571
  H        12.3647932111        3.1545749924       17.6301022016
  S         5.9510230257        6.2343093740       18.1710099942
  C         6.3390060367        8.8044411501       18.9053292532
  H        15.8406123057        4.6537006558        4.6487602083
  H        16.6065753424        6.1676598697        4.7453843326
  C        16.4936844662        5.2287680604        6.6014669553
  H         5.4547508814        5.8636433172        3.3129735019
  H         6.3994944797        5.0023318920        2.0196566756
  C         5.3247716255        6.8467918854        1.3715686225
  S        11.7163601327       -2.0083811190        1.0281933485
  N        12.0730703890       -1.5525078552       -0.4343267349
  C        12.2158067892        0.5977843222       -1.5821369579
  H        12.4986728153        2.6330351641       -2.3558470827
  C         5.7904966369        6.8472577283       19.8925263502
  N         5.8463251881        8.1596087006       20.0527782021
  O         6.9094738180        9.9012392040       18.8371531542
  H        16.2060232808        6.0226450765        7.2381112305
  H        15.9469792183        4.3691050735        7.0479014317
  C        18.0856694305        4.9095451275        6.6271815169
  H         5.9414420465        6.8194213142        0.4372031113
  H         4.3105911306        6.3971611394        1.1388238379
  C         5.0496245908        8.2562623201        1.8043059582
  C        12.5689746953       -0.1298584332       -2.8107476262
  S         5.4940732471        5.8118137011       21.2312398583
  C         5.7311643785        8.8584239998       21.3932997698
  H        18.4131045183        4.5285691221        7.5866075845
  H        18.3581681946        4.1076190918        5.9357485877
  C        18.9340830201        6.1086741262        6.3365565319
  H         5.9307750203        8.8773459772        1.5892769499
  H         4.7079259709        8.4458194620        2.8618267483
  C         4.1356770998        9.0520013520        0.8057232033
  H        12.5961458691       -1.1716698414       -2.6332497095
  C        13.2039796760        0.1644499687       -4.0059126312
  H         4.9745852442        8.3030182802       21.9796267635
  H         5.3212961023        9.8457731367       21.1497460671
  C         7.0327164840        8.8585007379       22.1957303059
  H        18.5571043984        7.1391489501        6.6463598957
  H        18.9333933389        6.1283227797        5.2540063618
  C        20.3363574622        5.8546690500        6.7545055903
  H         4.1741518406        8.5259025977       -0.1976446299
  H         3.1197567560        9.1073851304        1.1599562545
  C         4.6323461703       10.5918571314        0.7833749224
  S        13.9395986788        1.6544623419       -4.4784909051
  C        13.3407217445       -0.9179624618       -5.0295313169
  H         7.4609295400        9.8868610116       22.4899755377
  H         7.8310851220        8.4490489377       21.6166732571
  H         7.0450548062        8.3412580712       23.1368876755
  H        21.0240728746        6.5332928945        6.2168069474
  H        20.6029057870        5.8591864387        7.8378046768
  H        20.7073109080        4.8675599813        6.3178095469
  H         3.8683098697       11.0176774206        0.2125167364
  H         4.5828090229       10.8855407315        1.8392395775
  H         5.6033138450       10.5952043659        0.3665897555
  C        14.3343924992        0.8366997086       -5.9821863197
  N        14.1264683150       -0.4551451337       -6.0087558394
  O        13.0765155043       -2.1091637375       -4.7838233494
  S        15.2056274680        1.7135763529       -7.3323355966
  C        14.4053113461       -1.3380461138       -7.1129628517
  H        14.5602909274       -2.3138878476       -6.7976292081
  H        15.2588202869       -1.0088021025       -7.7107707826
  C        13.3184507319       -1.3111789209       -8.1688297224
  H        12.3645550897       -0.8594666154       -7.8273279938
  H        13.1147149966       -2.2674239613       -8.6342435256
  H        13.7767297723       -0.6236941180       -8.7903081590
  H        -3.9915857030       15.2375643166       16.5705406376
  C        -3.4701142471       14.2383991088       16.5067354884
  H        -4.2782566250       13.5123835255       16.6862941776
  C        -2.4488410556       14.0069476359       17.6475087517
  C        -2.8737475524       14.1149053565       15.1226804407
  C        -2.9913257482       13.5395363812       18.9478130070
  H        -1.7981747545       13.2200282649       17.4840613077
  H        -1.8019696546       14.9182468603       17.7767768622
  H        -3.6000732782       14.4409167756       14.4257065827
  H        -2.0320478850       14.7187994516       14.7489186189
  H        -2.7997753459       13.0577510343       14.8781810851
  C        -1.9147366540       13.6582768794       20.0224337719
  H        -3.4118844198       12.6082962531       18.7907175677
  H        -3.8187868129       14.2335037180       19.1928327265
  C        -2.4518580454       13.7491268634       21.4047439566
  H        -1.2687344016       12.8187202470       19.8169853539
  H        -1.4221690235       14.6331683171       19.7663001656
  C        -1.5365545887       13.1344949256       22.4962026553
  H        -3.3626849781       13.1279747360       21.3509006321
  H        -2.9078670122       14.6784331111       21.5998247667
  C        -0.2702998444       13.9643182219       22.6645250254
  H        -2.2044104199       12.9974154443       23.3419310682
  H        -1.2866883323       12.1442906100       22.1763397011
  C         0.9253116065       13.2513038119       23.3187065578
  H         0.0849851560       14.2227865217       21.6427226147
  H        -0.4441611037       14.9342385083       23.0678801572
  C         1.1584908653       11.9500387340       22.6096131488
  C         0.5337826273       12.4582703246       24.5389983864
  C         2.1036204269       14.1596195245       23.3806006115
  C         0.9066404710       10.8089289538       23.3531570516
  C         1.6277899960       11.6110267875       21.3009633867
  C         0.4982373787       11.1531587547       24.6465995337
  C         0.1918759975       13.1048213099       25.7710324285
  H         2.2022673437       14.3630113465       22.3128940482
  H         1.7519489401       15.0608331462       23.8674304659
  C         3.4580866281       13.5179874549       23.8966493092
  S         1.1943616121        9.3460843289       22.5872678406
  C         1.7675415583       10.2611253129       21.2070648453
  H         1.8938299103       12.3821294246       20.6327678393
  C         0.2096261524       10.4899092578       25.8569733763
  H         0.0059659826       14.1531814875       25.7211821677
  C        -0.2367582331       12.4135106367       26.9071046226
  H         3.6287351386       12.5103840469       23.4761531587
  H         3.3136064688       13.4791933872       25.0051302012
  C         4.6687861097       14.2878466826       23.4727898177
  C         2.2889417061        9.5563466187       19.9664458647
  C        -0.2203371744       11.0762859247       26.9961875645
  H         0.3522876531        9.4861034788       25.8202946725
  C        -0.5870664807       12.8861190537       28.1557493075
  H         5.4843130187       13.7845735080       24.0561325104
  H         4.6861870405       15.2360491090       23.9263004519
  C         5.1419063662       14.3182005804       21.9754702704
  C         2.3261366112        8.1777814996       19.6904332953
  C         2.4986863909       10.3882353866       18.7616331471
  C        -0.5860258573       10.4657754096       28.2850315046
  C        -0.8583247644       11.8295828245       28.9969447917
  S        -0.6842062971       14.4464487770       28.9218873521
  H         6.1187267058       14.9263331938       21.9045261570
  H         4.4500947965       14.8247183623       21.3748030349
  C         5.4639994923       12.8979665350       21.4872953324
  N         1.8794794721        7.2187483340       20.5936907819
  C         2.7295384686        7.5425743514       18.4671382330
  C         2.9766674082        9.8488399764       17.5888557643
  H         2.4981106980       11.4917713226       18.9761023481
  C         0.6579935444        9.7714072574       28.8132935115
  C        -1.8473915822        9.6154660165       28.2464757019
  C        -1.1452980932       12.2237923575       30.3052893394
  C        -1.2609655502       13.6321291783       30.3367461647
  H         6.1473447419       12.3140912985       22.1805863690
  H         4.6776142096       12.2394978497       21.7704368040
  C         5.7275552794       12.7929683610       19.9668409774
  S         2.0155150680        5.7109355032       19.8627312330
  N         2.5680806377        6.1740938806       18.4524826185
  C         3.0598871780        8.3808655264       17.3391908371
  H         3.2535435407       10.5610994126       16.8659458126
  H         1.1596490205        9.5304391115       27.9496376554
  H         0.5164828816        8.8203264150       29.3412583478
  C         1.6889406071       10.5920035599       29.5871644096
  H        -1.6102704218        8.8357877360       27.5636428696
  H        -2.0478869429        9.0539453635       29.1743297901
  C        -2.9526159040       10.4029578420       27.5982074620
  H        -1.3448514930       11.4521863066       31.0916769991
  C        -1.7334142458       14.4382978526       31.5602407270
  H         5.1950927760       13.5150007623       19.3835294026
  H         5.4662862497       11.7898515130       19.8367821323
  C         7.1551747203       13.1006467990       19.7081481988
  C         3.3323656555        7.7174618582       16.1117147026
  H         1.9247126604       11.5073002858       29.0106620223
  H         1.1731784546       10.9015771168       30.5109435664
  C         2.8277490591        9.7495215264       30.0073505930
  H        -2.8041881506       10.8335807380       26.5799021497
  H        -3.2037629719       11.2238190566       28.3277610917
  C        -4.1492637232        9.5417724438       27.4622654536
  C        -1.6746446987       15.8384174921       31.6655294414
  C        -2.0059209524       13.7206460268       32.8449713400
  H         7.3985631461       14.0274787462       20.2292409888
  H         7.7493870434       12.3453503192       20.1445783077
  C         7.3044518152       13.1723880007       18.1523476754
  H         3.3406621005        6.6526946560       16.0914367149
  C         3.5143154840        8.2072104058       14.8329838342
  H         3.0911987483        9.1893507334       29.1582021751
  H         2.5479134736        8.9309028410       30.7555372997
  C         3.9526789223       10.6627027871       30.3408953355
  H        -4.0560951081        8.9915200090       26.5983894335
  H        -4.4918022539        8.8849633599       28.2488884951
  C        -5.2481072780       10.5328724703       27.1983149414
  N        -1.3236580250       16.7771610734       30.6032434776
  C        -1.9151615172       16.5495935211       32.8631752671
  C        -2.1376181261       14.3839921294       34.0477657236
  H        -1.9901553450       12.6677852833       32.8790881094
  H         6.5678966163       12.4412541594       17.7774113527
  H         7.0515124285       14.2429649692       17.8823282135
  H         8.2925801981       12.8924436932       17.7196571876
  S         3.8855940239        9.7810922700       14.5178861078
  C         3.6602962507        7.2100977187       13.6653643641
  H         3.9143319677       11.6023859312       29.8146946126
  H         3.8217993707       10.9189735915       31.3698112878
  C         5.2851704545       10.0397621831       30.2404407844
  H        -4.8659008826       11.4678330581       26.8709419472
  H        -5.6929649814       10.7543092372       28.1445053990
  C        -6.3260438813       10.0309718069       26.1706349576
  S        -1.4054527405       18.3289888189       31.1881472011
  N        -1.9303438096       17.9173004106       32.7204738406
  C        -2.0999513292       15.8788882661       34.1138258364
  H        -2.3383665218       13.6748342284       34.8584577060
  C         4.1435676338        9.3204489943       12.8484120042
  N         4.0227907477        7.9959414400       12.6464273536
  O         3.4045232473        6.0078668105       13.7698143727
  H         5.9962352791       10.8275774346       30.4035451176
  H         5.4869559804        9.9281926841       29.1628116602
  C         5.4679355423        8.7692318278       31.1139483083
  H        -5.7675554124        9.6481584164       25.2978936692
  H        -6.9098038203        9.2328216752       26.7522397631
  C        -7.2797833978       11.2526365300       26.0171776000
  C        -2.4817690639       16.6807970400       35.2180446499
  S         4.6902250245       10.3165580689       11.4750260729
  C         4.0565128367        7.3471860885       11.3277742443
  H         6.0296504185        9.1857387680       31.9820524650
  H         4.4883468482        8.3254778122       31.2915423721
  C         6.4042042759        7.8569388248       30.3637929656
  H        -6.6551253756       12.0527585735       25.5706357939
  H        -7.7296985571       11.5343550809       26.9506224705
  C        -8.3234921544       10.7108599858       25.0002551818
  H        -2.2710457011       17.7447172876       35.2203028103
  C        -2.9266572772       16.3088206907       36.4689810380
  H         4.7180731954        7.8279390251       10.6408834245
  H         4.5468825511        6.3771279927       11.4508167349
  C         2.6862570212        7.0554625882       10.6680949375
  H         7.2710956625        8.4360560749       29.9621379244
  H         5.9674577557        7.3270348105       29.5259003454
  C         6.8427219963        6.6720857584       31.3924780821
  H        -8.4521889925       11.4916911471       24.2209280692
  H        -8.1262107066        9.7614867715       24.6249123160
  C        -9.6414106253       10.5468154458       25.6413723102
  S        -3.3649755915       14.7533640271       37.0222853653
  C        -2.9233519584       17.3725221204       37.4528228728
  H         2.3281028780        8.0002252585       10.2465828558
  H         2.8736271868        6.3511606465        9.9005857968
  H         1.8486809129        6.6979102506       11.2678691662
  H         6.9081106499        5.7286920491       30.7834157961
  H         6.1737145812        6.5472182863       32.2967025981
  H         7.7930712164        6.9483252473       31.7926824772
  H        -9.4392098754        9.9505125877       26.5122379969
  H       -10.4841007510       10.2413396992       25.0801787597
  H        -9.9620385541       11.5394718995       25.7958780417
  C        -3.5594647142       15.5207650596       38.5685677071
  N        -3.4804360075       16.8431927225       38.6172596924
  O        -2.7956454931       18.5491131013       37.2698429229
  S        -4.3962234064       14.6659841109       39.9087282064
  C        -3.7471543144       17.7756942157       39.7383025148
  H        -3.5619068841       18.7957136343       39.4617957366
  H        -4.7580893268       17.7414302743       40.1401903653
  C        -2.7562170014       17.5013795025       40.8751920267
  H        -2.6633348712       18.3208555236       41.4569770117
  H        -3.1581042216       16.6368701707       41.3635350835
  H        -1.8880244229       17.3242691704       40.2681832604
