352
i=
  H         5.1380597508        1.9037476223       12.6398221580
  C         4.5249366683        2.7483437021       12.7292860153
  H         5.1450303918        3.6959526510       12.6847488474
  C         3.7154987023        2.5951051782       11.5222173089
  C         3.6414890705        2.5630492607       14.0161801001
  C         4.5569568503        2.7100944542       10.2068745771
  H         2.8495494788        3.2837544437       11.5048414863
  H         3.2373352065        1.5704838615       11.4157440198
  H         2.5857515117        2.5120305156       13.7753627788
  H         3.7622030545        3.3753390449       14.6901560236
  H         3.7944487136        1.6222554551       14.4924773720
  C         5.2697350268        1.4160873121        9.6890597940
  H         3.9749841428        3.1451104469        9.4888378386
  H         5.3556343147        3.4755862309       10.3725086184
  C         5.9141368654        1.7211138268        8.3588228131
  H         4.4824778712        0.6496633380        9.6032322736
  H         5.9167447511        0.8855134134       10.4304952639
  C         7.1425473490        2.5551492342        8.4230215642
  H         5.2025218902        2.1939200466        7.6646980375
  H         6.0225996507        0.8194299123        7.7902482455
  C         8.2423436966        2.0466733515        9.3606082337
  H         7.6195607002        2.5656028008        7.4298291964
  H         6.8933288063        3.5834904902        8.5679739035
  C         9.5807109954        2.9478605658        9.3135430642
  H         8.5023009266        1.0470184434        9.0250962315
  H         7.9044905664        1.9442072320       10.3623446938
  C         9.2881846351        4.2684471850        9.9932000520
  C         9.8996945671        3.5850630645        7.9769974588
  C        10.8243656597        2.3316044004       10.0574493182
  C         9.4186184205        5.3204344383        9.1193433862
  C         8.8344297183        4.7143873599       11.2688542510
  C         9.8226459782        4.9132923099        7.8396227419
  C        10.2543638196        3.0042405384        6.7452862713
  H        10.4064054104        2.0896189805       11.0525771441
  H        10.9963101048        1.3905798119        9.5649154304
  C        11.9908351854        3.3759978117       10.2187757918
  S         9.0703463217        6.8555645192        9.9022892893
  C         8.5684610288        6.0267307585       11.3723381007
  H         8.5909109886        3.8966768946       11.9446072670
  C        10.1211258215        5.5793568611        6.6567562544
  H        10.3301814243        1.9043177160        6.8631785132
  C        10.6149237742        3.6001095439        5.5871769155
  H        11.7715977167        4.3769135528       10.5922390707
  H        12.4245438188        3.6565430475        9.2067951353
  C        13.1791736247        3.0007211727       11.1862692698
  C         8.0367215507        6.7841702180       12.5602019895
  C        10.6484631697        4.9569030510        5.4854121427
  H        10.1149748362        6.6616799700        6.7771733668
  C        10.9895193238        3.1626143521        4.3245204293
  H        13.9696187876        3.7019593399       10.9696406851
  H        13.4482650977        2.0356626943       10.7928789448
  C        12.5669250100        3.0652797218       12.6090519446
  C         8.1459502219        8.1338996626       12.8172110641
  C         7.5598862693        6.0334906089       13.7171892815
  C        10.9963995111        5.6169816080        4.1861750581
  C        11.2435852433        4.2592657581        3.4986124684
  S        11.1444666647        1.6029058086        3.6118968592
  H        12.1578163574        4.0127036345       12.8932905096
  H        11.7946036545        2.2908576590       12.7434063532
  C        13.5783419490        2.6308733773       13.6504898318
  N         8.5070291695        9.1072613525       11.9190531827
  C         7.7794563315        8.7193320404       14.0470670161
  C         7.2084452057        6.6001242621       14.9200469591
  H         7.4516360101        4.9181679464       13.7035476499
  C        12.2550215641        6.5205706627        4.2446687229
  C         9.7768527113        6.4524421380        3.6157467322
  C        11.5449711235        3.7535494282        2.1817575247
  C        11.6369396248        2.4049523138        2.0897289371
  H        14.3633818912        3.3842087043       13.7222174177
  H        13.9848741998        1.6099038899       13.4376406945
  C        12.8985574673        2.6675978434       15.0468124049
  S         8.4651597359       10.5448860773       12.5161972661
  N         7.9434094372       10.0678692295       13.9578819885
  C         7.2803528168        8.0445327203       15.1557623956
  H         6.8471397700        5.9651059158       15.7169786966
  H        12.1157617337        7.2862260801        5.0079006012
  H        12.4362911889        6.9723765930        3.3089211492
  C        13.5393011526        5.7137100840        4.5902794942
  H         9.7794818121        7.4681408371        4.0262273318
  H         9.9721298992        6.6964204258        2.5895005983
  C         8.3706656584        5.8333404834        3.7333668553
  H        11.6924118215        4.4641693266        1.4014146685
  C        11.8836496131        1.6788935179        0.7912511116
  H        12.4558747055        3.6567712648       15.2822024755
  H        11.9913515823        1.9799148112       15.0005045491
  C        13.8176774118        2.2856923966       16.1056299706
  C         7.0274345058        8.7791278997       16.3464573293
  H        13.4093004920        5.0518641038        5.3931276410
  H        13.7885389646        5.0940114908        3.8127509684
  C        14.7229512329        6.5859407918        5.0080460198
  H         8.0714351716        5.9979464232        4.7636116449
  H         8.4199119484        4.7271163989        3.5385028754
  C         7.3945719079        6.4258458216        2.7631675597
  C        11.9918634483        0.2980639989        0.6865608740
  C        11.9648854874        2.5112277711       -0.4309577889
  H        14.7873108019        2.7711567667       16.0132622864
  H        14.0537864680        1.1817541506       16.0221515847
  C        13.1363492194        2.4793100678       17.4848964348
  H         7.0025521142        9.8425784891       16.2137545703
  C         6.6713423673        8.3188126598       17.5968395765
  H        14.4681153507        7.4029253923        5.6761937967
  H        15.2144698202        7.0302183350        4.1061566257
  C        15.8172107344        5.6593698566        5.6050266084
  H         7.1443291401        7.4849493342        2.9203885764
  H         7.7720106747        6.3936374973        1.7370018564
  C         6.0984436420        5.5783262001        2.7902576362
  N        11.7887955642       -0.5985352597        1.6939764646
  C        12.2734606049       -0.3392204532       -0.4856451209
  C        12.0613911866        1.8433548892       -1.6606499987
  H        11.8397564619        3.5684972637       -0.4435376129
  H        12.4964234831        1.6994348714       17.8379095747
  H        12.3768511559        3.3431640508       17.3721693600
  H        13.8147183799        2.8558042213       18.1494273483
  S         6.4167667501        6.6544570210       18.0568871113
  C         6.5178801295        9.2975570896       18.7351688161
  H        15.2730920229        5.1130824571        6.3627587457
  H        16.2143146676        4.9915348852        4.7868455987
  C        16.9537957184        6.3780349876        6.3675884693
  H         5.5562371619        5.7645319086        3.6896244727
  H         6.3088322348        4.5205055723        2.6817019377
  C         5.1631401549        5.9672531015        1.6756422768
  S        11.8970750549       -2.1797710964        1.1229795414
  N        12.2044112207       -1.6923238599       -0.4607788677
  C        12.2716146845        0.3870448323       -1.6954403405
  H        11.9164638328        2.4071258231       -2.5714095115
  C         6.1802051738        7.2383563205       19.7191562378
  N         6.1469124956        8.6361199150       19.8636822770
  O         6.7122393415       10.5094540980       18.6508191079
  H        17.5544074742        6.9345034728        5.6429832919
  H        16.5303415498        7.0815625046        7.1053496605
  C        17.9002378933        5.4663414599        7.0878716215
  H         5.7216282258        6.2555368717        0.7687117146
  H         4.5943629931        5.0926726605        1.2424223628
  C         4.3916096278        7.2854564143        1.9199635437
  C        12.5455260698       -0.3163611582       -2.8674692731
  S         5.6377631893        6.2812020888       21.0870322376
  C         6.2021633136        9.2153999054       21.2052280832
  H        17.4120818210        5.0624320125        7.9576247911
  H        18.1927128494        4.6520504913        6.4358765703
  C        19.0964861747        6.1220830700        7.7062502275
  H         4.6630150471        7.6827248327        2.9046674919
  H         3.3574814515        7.0019003922        1.9762734159
  C         4.8327558057        8.2678885715        0.8560978552
  H        12.1776794330       -1.3481297830       -2.7876148299
  C        12.9791505864        0.0398077426       -4.1108136391
  H         5.5231583833        8.7666046758       21.9210603648
  H         5.7914125757       10.2109390026       21.1178754446
  C         7.6656557501        9.3608977206       21.6431119530
  H        19.4043224829        5.5174383976        8.5251128178
  H        18.7966155739        7.1452970129        8.0439884354
  C        20.3196378168        6.2154098805        6.7130799107
  H         5.8771658833        8.3061111878        0.7160559787
  H         4.4295547425        8.0187216329       -0.1572289984
  C         4.3375084754        9.7004607438        1.2249398742
  S        13.6548334257        1.6109129913       -4.5665463240
  C        13.0479782813       -1.0726245898       -5.0792855286
  H         7.7803436126        8.9429223267       22.6548455592
  H         8.0277363716       10.3661922407       21.8124192259
  H         8.3775347728        8.8173536580       21.0286169037
  H        20.6553712130        5.1415455155        6.4915536861
  H        20.0090929303        6.5805803538        5.7527883058
  H        21.1201736596        6.7977006522        7.1034313840
  H         4.8446079315        9.9534738426        2.1446035955
  H         4.7175189037       10.3581305207        0.4133413455
  H         3.2748225027        9.8607113640        1.4898496883
  C        14.0770866327        0.7579653789       -6.0115053162
  N        13.7694326353       -0.5416295166       -6.0871003891
  O        12.6920367587       -2.2074123200       -4.9177202655
  S        14.6986276184        1.5956549136       -7.4301451666
  C        14.0165325223       -1.2569274136       -7.3371476385
  H        14.0904313554       -2.2920104846       -6.9573717382
  H        14.9518642292       -1.0756747281       -7.7711899887
  C        12.7862963536       -1.0690846512       -8.1970688261
  H        13.1174297239       -0.8246970733       -9.1967842122
  H        12.3230217690       -0.1987062883       -7.8979977400
  H        12.1331889951       -2.0012057631       -8.1982380089
  H        -4.1184155448       14.8484642012       16.4816065665
  C        -3.5025231500       13.9921679227       16.5581422121
  H        -4.2097879091       13.1646903659       16.4907942694
  C        -2.5433376828       14.0492120861       17.7291409655
  C        -2.8642681406       13.8127567721       15.1270976412
  C        -3.1641945865       13.4948163327       19.0465318996
  H        -1.7769648002       13.4290518279       17.4851213426
  H        -2.1695614351       15.0346080076       17.8860118469
  H        -1.8606047890       13.2999721497       15.3101257213
  H        -3.4122897307       13.1319558893       14.4819372653
  H        -2.6436951686       14.6975962204       14.5778940199
  C        -2.0468956375       13.2802566788       20.0891961220
  H        -3.7432943441       12.5512191683       18.9602769947
  H        -3.9000937075       14.3208279106       19.4727488778
  C        -2.6025904466       13.2141017598       21.5342489376
  H        -1.5726032148       12.4216906763       19.7595386901
  H        -1.2630778484       14.0841359534       19.9944328582
  C        -1.4993480554       12.7422336213       22.4806430019
  H        -3.4455132039       12.5676446001       21.4636957081
  H        -2.9228913322       14.2042160446       21.8051986027
  C        -0.3706067240       13.6856506715       22.6128549402
  H        -1.9296158270       12.3996003937       23.3537866376
  H        -1.1689278162       11.9012699236       21.8654640758
  C         0.9831159426       13.1371622452       23.2399511375
  H        -0.0209398770       14.0641906114       21.6794795639
  H        -0.7064708116       14.5016889613       23.1717005684
  C         1.4199934426       11.8342686224       22.5008322488
  C         0.7043943176       12.4529115180       24.4953033398
  C         2.2043470716       14.1921019263       23.3424432117
  C         1.2577985144       10.7146946311       23.3471501479
  C         1.8445028665       11.4064690346       21.2247835432
  C         0.8077414419       11.1209846757       24.6242833372
  C         0.2601513610       13.0404754802       25.6407034117
  H         2.3543566649       14.6098571968       22.3006898225
  H         1.9370075566       15.0049140447       24.1088658432
  C         3.5295091276       13.5395697909       23.7360026896
  S         1.8415022656        9.2370404050       22.6798532958
  C         2.1247989281       10.0653866196       21.1536451971
  H         1.8011186882       12.1097462139       20.4177665660
  C         0.4756417097       10.4677685068       25.7770367958
  H        -0.0364844633       14.0764556308       25.5233939102
  C        -0.1279183509       12.4422515930       26.8440644091
  H         3.8884543928       12.8565554556       22.9630486276
  H         3.4366261953       13.0527342280       24.7178886975
  C         4.6475668333       14.5267165916       23.8844479283
  C         2.7279759326        9.3703397483       19.9874723177
  C        -0.0399090741       11.1165090510       26.9064332466
  H         0.6488793466        9.4471981188       25.8319789911
  C        -0.5882704171       12.8192970775       28.0310568922
  H         5.2548895298       14.1696566292       24.6732750583
  H         4.1983105898       15.4023352847       24.3669963826
  C         5.4482811625       14.8938241444       22.5752326498
  C         2.6168411960        8.0256190882       19.5986600371
  C         3.2859247061       10.2212687758       18.9277969730
  C        -0.6090157639       10.3683543682       28.0936427736
  C        -0.8846242090       11.7320151270       28.7791741100
  S        -0.9866816382       14.2306588096       28.8908652274
  H         5.7222970370       15.9502428540       22.6403001109
  H         4.7182200645       14.7437370919       21.8072285774
  C         6.7795037194       14.1543629387       22.1998457614
  N         2.2391717959        7.0986991066       20.4893628006
  C         2.9180675146        7.5305785805       18.3687729804
  C         3.4913325025        9.8045169313       17.6073987290
  H         3.3698886722       11.2827256953       19.0858104538
  C         0.5694034767        9.5627528354       28.6918401318
  C        -1.9180276479        9.5906040400       27.8912497249
  C        -1.2680374894       12.0792041116       30.0743867478
  C        -1.4502616209       13.4050445942       30.2723527710
  H         7.4827392273       14.8401946024       21.7027223867
  H         7.3091175600       13.7647358428       23.0133355987
  C         6.5203547656       13.0135506084       21.1634565512
  S         2.0882594956        5.6835368699       19.7985581833
  N         2.5446433957        6.1753679602       18.2919962982
  C         3.3380539204        8.3180095922       17.2916628901
  H         3.9907835962       10.4281538407       16.8875552282
  H         0.7773647371        8.8257837190       27.8958571630
  H         0.1464084459        9.0093705747       29.5282607461
  C         1.7301959757       10.4388528217       29.2014951975
  H        -1.6701530268        8.9119679996       27.0396436176
  H        -2.2159708985        9.0001353419       28.7953975631
  C        -3.0967069799       10.4242959377       27.3546033622
  H        -1.4815159178       11.2446001688       30.7772599269
  C        -1.9178495132       14.1005542098       31.5447349517
  H         5.7165632174       12.3489314554       21.5806619260
  H         7.4153824195       12.4951823785       21.1409782839
  C         6.1122871947       13.4511107631       19.7246667450
  C         3.5805525657        7.6938615976       16.0568138566
  H         2.0454115767       11.2768870204       28.4570950005
  H         1.2872488364       10.8762382453       30.0898361953
  C         2.9083000194        9.5802927688       29.5765293637
  H        -2.9252250029       11.0787343129       26.4513562529
  H        -3.4296216280       11.1085655889       28.1351890583
  C        -4.2527298996        9.4911562056       26.9699585808
  C        -1.9296174818       15.4846383892       31.7168392351
  C        -1.9819629000       13.2945397289       32.8111202924
  H         5.6366367683       12.5559704256       19.3081455593
  H         5.4151918231       14.2262934344       19.7676876755
  C         7.3369042007       13.6543048477       18.7504633088
  H         3.4595063681        6.6180767553       15.9475688988
  C         3.7883208309        8.1883556960       14.7939892088
  H         3.2028986621        8.8803408667       28.8125793404
  H         2.6209268069        8.7234756458       30.2450425944
  C         4.0996777262       10.2521214985       30.2243994727
  H        -3.9173991062        8.9337096317       26.0639988641
  H        -4.3985102030        8.8746064241       27.8331516303
  C        -5.4834837327       10.3770658931       26.5655852206
  N        -1.5972568876       16.5205828671       30.8040005028
  C        -2.2027012995       16.0479599018       32.9521758862
  C        -2.2555253475       13.8972308321       34.0430754344
  H        -1.8931798844       12.2181573450       32.8291895353
  H         8.0893496327       14.3057228551       19.2075392622
  H         7.7077414463       12.7084939526       18.3963649647
  H         7.0073541356       14.1904426490       17.9004521496
  S         4.1195853891        9.8176803934       14.2895118242
  C         3.8625906653        7.1863773187       13.7068910666
  H         4.1763715208       11.2189539321       29.8082030231
  H         3.8370550821       10.3711606677       31.2773431068
  C         5.4624935795        9.5732488422       29.9557817755
  H        -5.0439700308       11.1118265468       25.8808621592
  H        -5.7440009046       10.8642119377       27.4972126194
  C        -6.6577038636        9.6017995106       25.9169773435
  S        -1.6941236423       18.0050861506       31.5189417671
  N        -2.3216950514       17.4760197745       32.9034241070
  C        -2.4652326709       15.3757433151       34.1356634435
  H        -2.2207395364       13.3042679650       34.9606308904
  C         4.4345350916        9.1358772407       12.6871611599
  N         4.2013148363        7.7913765444       12.5768490460
  O         3.7416599766        5.9455875006       13.8004898873
  H         6.1937008438       10.3410084100       30.1907451522
  H         5.6349123835        9.2192648809       28.9483875578
  C         5.8883510471        8.4664170261       30.9526742800
  H        -6.3486370879        8.7355878951       25.3132364832
  H        -7.3050351104        9.0763349333       26.6199791088
  C        -7.5118589265       10.4756510992       25.0658066529
  C        -2.6225292044       16.1287765989       35.3749056137
  S         5.0394568370       10.1206803118       11.4133936843
  C         4.3932736926        6.9989838085       11.3381986038
  H         6.8905129671        8.1218906429       30.6720697093
  H         6.0692008928        8.9396429628       31.9055632656
  C         5.0997231973        7.1835452906       31.0156880166
  H        -6.8980888801       10.7697640358       24.2769590080
  H        -7.7876614584       11.3396170241       25.5525409021
  C        -8.8739520323        9.9988694192       24.5804652504
  H        -2.4275472281       17.1497751808       35.3709085449
  C        -3.0780528917       15.7485089228       36.5970661278
  H         4.8714110990        7.5557569625       10.4884291205
  H         4.9227594904        6.0782072904       11.5860197442
  C         3.0026394474        6.4703447310       10.8790732210
  H         4.9015484256        6.7824396039       29.9958997015
  H         4.1371690076        7.5133986040       31.4216846283
  C         5.7230316838        6.0691815663       31.8489346516
  H        -9.2306164138       10.6218362025       23.7558279955
  H        -8.8695896143        9.0641887730       23.9670444932
  C        -9.9651811824        9.9194876152       25.5496387732
  S        -3.5679147647       14.2427352093       37.0963298131
  C        -3.2008128516       16.8276722973       37.6269673653
  H         2.3654802963        7.3328579031       10.7299390291
  H         3.0981655075        5.9348095090        9.9362275862
  H         2.5051582181        5.8538702908       11.6074194050
  H         6.4976246503        5.5605792158       31.2739264229
  H         5.0959815024        5.2875311664       32.1798726663
  H         6.2134816828        6.5968390347       32.7179871791
  H       -10.9185669649        9.4640066005       25.2401727767
  H       -10.2096979318       10.8755092514       26.0055678489
  H        -9.6354404207        9.3267269214       26.3970020851
  C        -4.0066901641       14.9900293584       38.6362112782
  N        -3.8568257717       16.3562126262       38.7135351332
  O        -2.8912283343       18.0090063073       37.4260456039
  S        -4.6511683241       14.0985487409       40.0303722478
  C        -4.0384431669       17.2167291008       39.8717856266
  H        -4.3293501747       18.2518160223       39.5659452073
  H        -4.9298529964       17.0186270341       40.4744363079
  C        -2.8304090580       17.1333832759       40.8403469813
  H        -1.9474747731       17.2719523027       40.2157257788
  H        -2.7382520259       18.0135972673       41.4378372057
  H        -2.8684910924       16.2098312430       41.4465962953
