352
i=
  H         3.9231252604        1.2905907684       12.5741691956
  C         4.3126791721        2.3188700436       12.8238057074
  H         5.3587987670        2.1161065407       12.7595157032
  C         3.8867735127        3.3798440024       11.8111412956
  C         3.9212185552        2.7111330663       14.1992004100
  C         4.7622476650        3.3926394807       10.5470260316
  H         4.1425457431        4.2923366951       12.3046128212
  H         2.8681367943        3.3261663303       11.5817182943
  H         3.9066394792        2.0121331656       14.9673804574
  H         2.9339721346        3.1940070246       14.0806836677
  H         4.5117456719        3.4922505311       14.6147342284
  C         5.2042524283        2.0110869333       10.1513441229
  H         4.4203101122        4.0348342078        9.6843278465
  H         5.6961948918        3.8147945297       10.8643243572
  C         5.6616596808        1.9507451009        8.7384328046
  H         4.3318739146        1.3089992374       10.1735322771
  H         5.9776487458        1.6098547207       10.7138140039
  C         6.9573963976        2.5345810055        8.3426529511
  H         4.8301231777        2.3758736885        8.1786232248
  H         5.6314409089        0.9366341412        8.3878581762
  C         8.1302371042        1.8448728956        8.9110259805
  H         6.9729842312        2.4846133596        7.3214799094
  H         6.7320296771        3.5710818694        8.6399939770
  C         9.3376528378        2.7927870246        9.1592628238
  H         8.2893733248        1.0011929356        8.1662670152
  H         7.9338739682        1.3645717100        9.9071239918
  C         8.9848917668        4.1161871555        9.7810918966
  C         9.8107056692        3.4754980879        7.9269413515
  C        10.4222851454        2.0273545094        9.9692512668
  C         9.2523313905        5.2127783248        8.9719793373
  C         8.4489279273        4.4082430595       11.0295033694
  C         9.7695409447        4.7991651265        7.7606321177
  C        10.2858016233        2.8321971259        6.7817871145
  H        10.0591416763        1.7525247470       10.9151192292
  H        10.5964222359        1.1165107210        9.3595685104
  C        11.7630904083        2.7678905894       10.1795145195
  S         8.6998724941        6.6748117613        9.6909637790
  C         8.1721741480        5.7683242318       11.1450531925
  H         8.2594350841        3.7066838257       11.8565829512
  C        10.1280212172        5.3856040022        6.6065731926
  H        10.3909874363        1.7797366300        6.9253015437
  C        10.6329056043        3.4266734436        5.6250748712
  H        11.6448566738        3.7557931368       10.5609026589
  H        12.1230403322        2.8673416801        9.1702285581
  C        12.8039383264        1.9602727001       11.0889624788
  C         7.5838279481        6.4059048034       12.3918032968
  C        10.5555053008        4.7315003799        5.4849943979
  H        10.0810360104        6.4318384494        6.5215354608
  C        10.9844786534        3.0304032771        4.3726185629
  H        13.6423712378        1.9736044933       10.4526161374
  H        12.3473557119        0.9506171232       11.1310695458
  C        12.8773095351        2.6405752619       12.4715424983
  C         7.6062965931        7.8568912095       12.6882881533
  C         7.0439819177        5.5392270032       13.4163389528
  C        10.8343680464        5.3748079406        4.1300251909
  C        11.1419044860        4.0918316747        3.4718737926
  S        11.2232789881        1.4753026905        3.6309509363
  H        13.7669406645        3.2533837117       12.4450265329
  H        12.1494174645        3.3343553194       12.5981634927
  C        13.0433971890        1.6729551540       13.6684889511
  N         7.9827947373        8.8417059178       11.8527865732
  C         7.2007091637        8.3679784261       13.9316694101
  C         6.6554938634        6.0629425756       14.6838021275
  H         7.0193174721        4.4931100570       13.2459609745
  C        12.1302603492        6.2460102659        4.2891626302
  C         9.6230169489        6.1149372018        3.4214383351
  C        11.6131206738        3.6256431189        2.2241704283
  C        11.5644154998        2.2864977951        2.1475359368
  H        14.1217928717        1.2937707828       13.6015190864
  H        12.2977842651        0.8950335407       13.4432023388
  C        12.7473059365        2.3343872212       14.9963028934
  S         8.2578296066       10.1883840927       12.6926504322
  N         7.3961217512        9.7195445958       14.0538439599
  C         6.8112584297        7.5543533442       15.0070646109
  H         6.4240724687        5.3399389778       15.4265261658
  H        11.8419389354        7.1224938553        4.9234375868
  H        12.3663544428        6.6852546391        3.2692537000
  C        13.3128769178        5.5416620070        5.0059144243
  H         9.3002946829        6.7678444110        4.2789655446
  H         9.9802684313        6.6842586556        2.5534673070
  C         8.4849374309        5.2582641076        3.1082617799
  H        11.8395848261        4.3635341833        1.4545710163
  C        11.8046112079        1.5434795162        0.8686607963
  H        13.4734944372        3.1671221153       15.3143228542
  H        11.8517006539        2.8325803149       14.9424217761
  C        12.7808290690        1.2988020786       16.1131492996
  C         6.6335688327        8.1410015063       16.2796983950
  H        13.0190019054        5.0253027106        5.9210167455
  H        13.7172705370        4.7673670827        4.3389595761
  C        14.5113161839        6.4774118819        5.2356737426
  H         8.1565833111        4.6007791168        3.9249679623
  H         8.7093752857        4.6084163108        2.2540017917
  C         7.3812793314        6.2971822160        2.6764327055
  C        11.7717914805        0.1391392562        0.7537102398
  C        11.8626062767        2.2265846249       -0.4482811903
  H        13.7095606915        0.7162186940       16.0257599512
  H        12.0172230673        0.6025427617       16.0650707857
  C        12.6304789336        2.0053130519       17.3995162119
  H         6.6381745518        9.2082715849       16.3187915794
  C         6.4618517416        7.6029408237       17.5487591499
  H        14.5105117515        6.8725827994        6.2388849843
  H        14.4836622533        7.2506254612        4.5011968087
  C        15.9419702729        5.8596751196        5.2231955517
  H         7.1041559504        6.9609301694        3.4326563096
  H         7.8078232899        6.9802638572        1.9613448950
  C         6.0806325530        5.5777597059        2.2800761090
  N        11.8455136428       -0.7288302067        1.8338937836
  C        12.0992954282       -0.4806144130       -0.3956512034
  C        12.0682539626        1.5823845511       -1.6719232451
  H        11.8831365770        3.2991471164       -0.4757185219
  H        13.5359690591        2.5153915111       17.6956277552
  H        12.2608481128        1.5062686914       18.2494571263
  H        11.9676073334        2.8931194219       17.2864645735
  S         6.1109925658        6.0284805195       18.0617916074
  C         6.3485625033        8.5824596995       18.6879680126
  H        16.0304132279        5.0748786433        4.4305151392
  H        16.5528624302        6.7154358475        4.8822037016
  C        16.5358555530        5.4774892220        6.6589476148
  H         5.5729804606        5.1573771771        3.2026500995
  H         6.3815242080        4.7330213388        1.6198409631
  C         5.1004030041        6.5672545555        1.7067109959
  S        11.7822239271       -2.1991027288        1.1783621623
  N        12.2550785961       -1.8688241496       -0.3459579229
  C        12.3111522528        0.1293772296       -1.6146818190
  H        11.9220425453        2.2103260580       -2.5920341853
  C         6.1174340256        6.6654088572       19.7004047897
  N         6.1331433022        7.9829684271       19.8902601799
  O         6.4940687440        9.7780844094       18.4954167446
  H        16.5179796679        6.3518204734        7.3065780713
  H        15.8535070403        4.7796675822        7.0542613407
  C        17.9017951280        4.8478652215        6.4849283913
  H         5.7007065995        7.2307498954        1.1172962291
  H         4.4457095135        6.0602021193        1.0149397741
  C         4.3417818881        7.3438470508        2.8768975414
  C        12.6361415164       -0.7282822030       -2.7271285296
  S         5.5764852101        5.6116199568       21.0009708317
  C         6.0229790061        8.7183420576       21.1665482564
  H        18.2998484895        4.6320630324        7.4567675544
  H        17.7999917950        3.9349333931        5.9770822962
  C        18.9449169915        5.7785521739        5.7113647485
  H         4.6773685136        7.1203499251        3.8860656627
  H         3.3195530280        6.9491913534        2.7781809957
  C         4.3105595306        8.9182976454        2.6378897487
  H        12.3130108328       -1.7507497722       -2.7469609763
  C        13.2161392357       -0.4160579655       -3.9316453756
  H         5.7350075822        8.0205096206       21.9145864127
  H         5.1918599955        9.5115149864       21.0446875620
  C         7.3259277637        9.3904748393       21.5121542129
  H        18.8661502470        6.8376738298        6.0602425959
  H        18.8077789838        5.6470335923        4.6163773105
  C        20.2189365929        5.1748815283        6.1844424601
  H         3.7934005425        9.3059376980        3.5508268645
  H         5.3447077699        9.2713636378        2.5833548165
  C         3.4985565527        9.4518410174        1.4172629932
  S        13.9291649472        1.1298669399       -4.3115993585
  C        13.1936360439       -1.4532600112       -5.0152391180
  H         7.8982500931        9.8625868793       20.6726471535
  H         7.9822229817        8.6804850138       22.0460863208
  H         7.0817158598       10.2659115693       22.1371043948
  H        20.4753756434        4.1253377687        5.8222485075
  H        21.0576627437        5.8011538030        5.8127914728
  H        20.2490554219        5.1629049569        7.2933720661
  H         3.8379233872       10.4702687558        1.0927514974
  H         3.6812166515        8.7467899675        0.5506103271
  H         2.4185514315        9.4342066920        1.6200146071
  C        14.0545589551        0.4553518949       -6.0009258473
  N        13.8330227852       -0.9198905955       -6.0703745109
  O        12.8478850244       -2.6191648875       -4.8756222225
  S        14.8983754483        1.2675755852       -7.3673833287
  C        13.9076679726       -1.7682821683       -7.2704842136
  H        14.1263032478       -2.7739355125       -6.8929317383
  H        14.7484661578       -1.6104629996       -7.9474936556
  C        12.6068946049       -1.6028554415       -8.0997339451
  H        11.7924254909       -1.4517665553       -7.5033260716
  H        12.3571787662       -2.5211524469       -8.6726493976
  H        12.6955530463       -0.7097502166       -8.7065665821
  H        -3.2219728370       14.9833198740       16.4019164929
  C        -3.3605610242       13.9277569473       16.6080040118
  H        -4.2175866309       13.6331846314       17.2170752717
  C        -2.1470419978       13.5026693654       17.4450262627
  C        -3.3466880224       13.2474751940       15.3069975994
  C        -2.2364866067       14.1365390782       18.8565593690
  H        -2.0618730357       12.3785714554       17.5754160966
  H        -1.2324659608       13.8140890148       16.9143442859
  H        -2.6239849581       12.4141196558       15.3408234484
  H        -4.3827031566       13.0022253568       15.0089726773
  H        -3.0034902741       13.9085114598       14.5037302079
  C        -3.0134724024       13.3488514470       19.9596699989
  H        -2.5636740565       15.1791721748       18.9091332045
  H        -1.1737779530       14.2631437001       19.1951572346
  C        -2.7720543594       13.7413626955       21.4151808347
  H        -4.0383639465       13.5020448239       19.8329941074
  H        -2.9723570586       12.2512581681       19.8075523036
  C        -1.6026488924       12.9336281609       22.0294986293
  H        -3.6826371690       13.8041420682       22.0338032962
  H        -2.4094540784       14.7445456339       21.2840907522
  C        -0.5561438318       13.8776278867       22.5910764511
  H        -2.0399598903       12.2524498049       22.8114113093
  H        -1.1769064108       12.2618263486       21.2904418092
  C         0.6405574757       13.1119723151       23.3178150380
  H        -0.0463353733       14.5701931734       21.8855796994
  H        -1.0688113766       14.5640135093       23.2681060445
  C         1.0414784688       11.8676415700       22.5831032960
  C         0.1504971982       12.3745460971       24.5111002505
  C         1.8314222439       14.0231739757       23.5407313998
  C         0.7543814721       10.6753406505       23.2807775405
  C         1.5524751110       11.5525807871       21.3093131489
  C         0.1679664054       11.0358847824       24.5254705273
  C        -0.1796818655       12.9181008016       25.7378350961
  H         1.9491618315       14.7014180412       22.6858551856
  H         1.6090653891       14.6723972920       24.3851728535
  C         3.1154348257       13.2890449307       23.9291672134
  S         1.2105212988        9.2586429042       22.4653030664
  C         1.8049287355       10.2324775936       21.1965580360
  H         1.7136734788       12.3122584751       20.4996354192
  C        -0.1723036103       10.2864737974       25.6392582996
  H        -0.2025780424       13.9710481591       25.6871854021
  C        -0.5514283153       12.1985680560       26.8936145429
  H         3.3997582967       12.7182308067       23.0005291824
  H         2.9688442489       12.5866198052       24.6996856663
  C         4.3558431351       14.0987148291       24.2920693020
  C         2.3353763831        9.5055796392       20.0272007786
  C        -0.4814375626       10.8125953491       26.9198781402
  H        -0.1594721004        9.2101919619       25.5583296010
  C        -0.9312432355       12.5112116430       28.1485067781
  H         5.0844206965       13.4993937480       24.8407107191
  H         4.0727304506       14.8128700458       25.1165239154
  C         5.0061681998       14.8225982599       23.0891715475
  C         2.4401566090        8.1098884835       19.7130564840
  C         2.7338150608       10.4025354985       18.8670265336
  C        -0.9319624372       10.0344422255       28.1512772934
  C        -1.1749036067       11.3708744776       28.9526393172
  S        -1.0846415066       13.9504444465       29.0631571797
  H         5.7521893288       15.5272439299       23.4253170428
  H         4.3352836725       15.4331106684       22.5147590768
  C         5.6603422004       13.8648337419       22.1511141057
  N         2.2988306521        7.2096722739       20.7338993122
  C         2.7859121484        7.6352817478       18.5186075687
  C         3.1585811247        9.9299247812       17.6464198863
  H         2.7029200656       11.4784731125       19.0224033532
  C         0.2719011035        9.2104665932       28.7845419662
  C        -2.1982595242        9.2184316629       27.9642859047
  C        -1.4820986904       11.6581874288       30.3177050538
  C        -1.6002367116       13.0204681745       30.4833595057
  H         6.7337123832       14.0077830720       21.9618111143
  H         5.5047467605       12.9888845869       22.6961659439
  C         4.9159071427       13.7520860905       20.8386058986
  S         2.2902333920        5.7683018859       20.0465695775
  N         2.6292941111        6.2585648238       18.5230242896
  C         3.1116155989        8.4321182430       17.3927259034
  H         3.4791530121       10.6375520588       16.8931332086
  H         0.5060050129        8.3524040833       28.1445574906
  H        -0.0648793098        8.8518043968       29.7623580727
  C         1.5242377017        9.9443921108       29.2642022039
  H        -2.0925970357        8.2938778429       27.3235223953
  H        -2.4627035196        8.7369828660       28.9442203261
  C        -3.3810247722       10.1025992181       27.4081833619
  H        -1.4863525376       10.8556035226       31.0420136370
  C        -1.6652372673       13.7513895864       31.7957116370
  H         5.0567926910       14.7255136037       20.3249226581
  H         3.8982265216       13.5953648619       21.0168310777
  C         5.4338540351       12.7374063455       19.8942345600
  C         3.4041862210        7.7506419671       16.1280134379
  H         1.8536961091       10.6271124240       28.4859278790
  H         1.3892859788       10.5536795064       30.1872475421
  C         2.5560415448        8.9174919131       29.7142351946
  H        -3.0168083080       10.6708169343       26.5434397385
  H        -3.7413129083       10.8229063587       28.1205860111
  C        -4.5856642948        9.3227337097       26.8956691330
  C        -1.8091637131       15.1159462377       31.8928366347
  C        -1.8458835465       12.8894934812       32.9460909154
  H         5.5277449081       11.8432938022       20.4975497968
  H         4.6639352099       12.5070259273       19.1558934958
  C         6.8173606554       13.1380597580       19.2704267597
  H         3.1561976863        6.6576934332       16.0910532949
  C         3.5964395407        8.2590590942       14.8569461732
  H         2.7655285169        8.2075421227       28.8533991483
  H         2.1888090124        8.2992582366       30.5228202426
  C         3.9342087246        9.5553758328       30.0204404897
  H        -4.1737831421        8.6463694685       26.1286405531
  H        -4.8932922233        8.5845315334       27.6437193639
  C        -5.8011778278       10.1992780396       26.6424033931
  N        -1.7706139799       16.0843948129       30.8790538060
  C        -2.1006617416       15.6519255666       33.0967209325
  C        -2.1267616148       13.4748588967       34.1926872156
  H        -1.6136044773       11.8517808398       32.9767823428
  H         6.8713208076       14.1852052836       19.2197090303
  H         7.5942666624       12.7978816547       19.9498533253
  H         6.9572672324       12.6185658712       18.3241445572
  S         4.0346336180        9.8847121402       14.4156993875
  C         3.7140971301        7.2822345537       13.8129951025
  H         4.4542388282        9.5778306662       29.1195993763
  H         3.7999165706       10.5976389499       30.3804020834
  C         4.7642643149        8.7616909490       31.0637906989
  H        -5.6571719419       11.2155744874       26.2807170106
  H        -6.1711973589       10.3811707527       27.6592364275
  C        -6.9260377931        9.3911599181       26.0182005652
  S        -1.7996606291       17.5631540791       31.4942061826
  N        -2.1624034270       17.0389929928       33.0290726528
  C        -2.2486112619       14.9265410186       34.2904274734
  H        -2.0445403699       12.8244997844       35.0294710655
  C         4.1106003065        9.2500511142       12.7611790719
  N         4.1241068187        7.9421172523       12.6602891506
  O         3.6285034516        6.0966673341       13.9572065417
  H         4.4235898439        8.8388773570       32.1172794190
  H         5.7240460791        9.3231480076       31.0681321248
  C         5.0031390354        7.2842767598       30.5569999177
  H        -6.4605151732        8.6634110987       25.4266946233
  H        -7.5132400619        8.8559655118       26.7593882581
  C        -7.8197807851       10.3126825956       25.2094770152
  C        -2.6332704468       15.6858900877       35.4890234361
  S         4.7804160901       10.0856286707       11.3389585539
  C         4.3164982254        7.2348784957       11.3829161522
  H         4.1165441142        6.7455765143       30.5796398572
  H         5.3836448380        7.2684583935       29.5455258950
  C         5.8509724112        6.4417904693       31.4538583709
  H        -7.3377086368       10.4499971373       24.2665900293
  H        -7.8873132789       11.3346623268       25.6057155555
  C        -9.2287504222        9.7256049811       25.3220980344
  H        -2.3771723014       16.7484413515       35.4687820883
  C        -3.1672925670       15.3929015031       36.7390405951
  H         5.0368491522        7.6395704986       10.6535910886
  H         4.7565636787        6.2523192462       11.6179132161
  C         2.9326248257        7.0756643049       10.7789708664
  H         5.4261483880        5.4879495186       31.5898632627
  H         6.0050910238        6.8958311762       32.4461594536
  C         7.2695518057        6.2770119401       30.9156098883
  H        -9.8795173448        9.8750814852       24.4624883139
  H        -9.1942595824        8.6701928128       25.5258193339
  C       -10.0492742163       10.2757699633       26.5337185489
  S        -3.7672424444       13.8262203580       37.2645307459
  C        -3.3546581437       16.4569049526       37.7616639265
  H         2.2185321926        7.8963484398       10.8923965201
  H         3.0502513379        6.8117154972        9.7291914800
  H         2.5159918164        6.2136908469       11.2796498903
  H         7.8174140071        7.1012202207       31.2837075523
  H         7.3782024178        6.3588491493       29.8913352046
  H         7.7327777718        5.3465136176       31.2833334107
  H       -10.2158322284       11.3416548920       26.4885057832
  H        -9.6182004387       10.0050183231       27.5219108834
  H       -11.0059510211        9.7210591678       26.6171675125
  C        -4.1151198821       14.6349682763       38.8143201689
  N        -3.8347402510       15.9221962991       38.8683138725
  O        -2.8623913544       17.6218577727       37.5874842772
  S        -4.4605993581       13.8067881554       40.3902589455
  C        -3.8824256668       16.7403055210       40.0712728824
  H        -4.1387943096       17.8308655644       39.9530816315
  H        -4.7154790249       16.4517120143       40.6458462165
  C        -2.5657839855       16.7549036257       40.8434253314
  H        -1.6453173887       17.2312767415       40.4797764885
  H        -2.7323938725       17.2542779118       41.7955278770
  H        -2.2227837282       15.7543799364       41.0242285497
