352
i=
  H         4.9907560411        1.4789087246       13.1947435619
  C         4.1858593776        2.1796791309       13.0609452852
  H         4.6095663357        3.1234015127       13.2946659575
  C         3.3427852290        2.0370541033       11.7121648116
  C         3.3311313879        1.6739361524       14.2136944499
  C         4.0744826263        2.3121081337       10.4484471458
  H         2.3946500768        2.5602993074       11.7333870543
  H         3.0907724707        0.9983204103       11.6542877553
  H         2.9603325107        0.7025647758       13.9981783868
  H         2.4099585787        2.2439584015       14.2017024606
  H         3.7003141556        1.8619723177       15.2028077134
  C         4.7047820870        1.0747335123        9.7946708613
  H         3.5726475187        2.9163260437        9.6522521478
  H         4.8431645678        3.0223782661       10.7196188283
  C         5.4141563247        1.3185769562        8.5298209888
  H         3.9981258165        0.2836903969        9.6847289338
  H         5.4490313609        0.6174586283       10.4659521140
  C         6.6609098686        2.2031478298        8.6447304846
  H         4.7154848875        1.8720851479        7.9620448823
  H         5.6030292803        0.4313143213        7.9499263839
  C         7.8990125144        1.5039617891        9.2346679838
  H         6.8710593024        2.6591310890        7.6465091304
  H         6.4897257632        3.0449469975        9.3876263910
  C         9.1356354796        2.4824013393        9.3938527588
  H         8.3160992591        0.7896944241        8.4656153162
  H         7.7503205594        0.9421534067       10.1586432415
  C         8.6865954691        3.8065298880       10.1245624086
  C         9.5853984490        3.2465387111        8.1453002271
  C        10.3483363648        1.8940137972       10.1279798481
  C         8.9593156743        4.9388080441        9.3419160691
  C         8.2285455417        4.1446155090       11.4144997351
  C         9.4287205416        4.5915549178        8.0787634865
  C         9.9832343551        2.6738277332        6.9470833119
  H         9.9401494357        1.4143385061       11.0051393250
  H        10.8066518392        1.0629074697        9.6231600030
  C        11.3604547798        2.8840286159       10.6818942200
  S         8.4993591201        6.4316404257       10.0829526041
  C         8.0665620617        5.5064703684       11.5192064007
  H         8.1688415116        3.3841781199       12.1704427929
  C         9.7251583422        5.2273907865        6.9340405320
  H        10.0389846729        1.6274585815        6.9404534238
  C        10.2469995753        3.3312970124        5.7868335684
  H        10.8720777188        3.6398081180       11.2877924031
  H        11.9238360848        3.3209801588        9.8097062575
  C        12.5432662888        2.3053180164       11.4563772794
  C         7.7065119029        6.1548869172       12.8269690164
  C        10.2022344953        4.6652762835        5.7231988667
  H         9.5018842824        6.3174144095        6.9714629044
  C        10.6998977989        3.0110606861        4.5376849506
  H        13.3739540699        3.0258113175       11.3157721104
  H        12.9262938438        1.3668039221       11.0559728292
  C        12.1503711612        2.1176024049       12.9101819135
  C         7.8422953575        7.5124900197       13.1913499525
  C         7.1806836214        5.2837982459       13.9133929891
  C        10.4767534059        5.4210572923        4.4843379105
  C        10.8174380881        4.1267046515        3.7823492406
  S        11.1651689590        1.5150171734        3.7096783600
  H        11.8224572003        3.0169755447       13.4569758187
  H        11.2963773159        1.3698100008       12.9533037648
  C        13.1982725464        1.5196524464       13.7462771289
  N         8.1966494039        8.5606108165       12.3330347207
  C         7.7095198803        7.9934800560       14.5074304502
  C         6.9439088624        5.7515533646       15.2161135007
  H         7.0165236988        4.2749226653       13.7096499511
  C        11.7672571966        6.2981558563        4.7100024604
  C         9.2767057449        6.2822626147        3.9278925953
  C        11.1126527068        3.8202047128        2.4772760003
  C        11.4636666552        2.5058861338        2.2824866436
  H        14.0171679065        2.2788029616       14.0340418848
  H        13.6596643747        0.8282945348       13.0396100630
  C        12.8230771537        0.9025916463       15.0121164936
  S         8.2583052240        9.9505997761       13.1143276426
  N         7.7427951661        9.3637993627       14.6071180985
  C         7.1380159594        7.1895306097       15.5596410723
  H         6.5320825311        5.1221720756       15.9610033618
  H        11.7151773497        7.0471451359        5.5026061794
  H        11.9567618390        6.7437379690        3.7046173847
  C        13.0606613863        5.5064866067        4.9057542164
  H         9.0202892823        6.9800831278        4.7405912146
  H         9.7082601579        6.9329393382        3.1287844618
  C         8.1056799830        5.4360404029        3.4435258633
  H        10.9953572792        4.6362160115        1.7873341292
  C        11.6912054881        1.8077887760        0.9603690944
  H        11.9323436477        0.2627771161       14.9484071100
  H        13.6976283112        0.3307895048       15.3422591672
  C        12.4709137298        1.9934083334       16.0615937772
  C         6.8532069319        7.7841158455       16.8231129843
  H        12.9066493189        4.7071946451        5.6797902735
  H        13.4292256957        5.0569868530        3.9931601523
  C        14.1112395273        6.3787197721        5.4430397440
  H         7.4934392818        5.0930751029        4.2311919664
  H         8.4543929387        4.5179641808        2.9919911087
  C         7.2224322960        6.1304181043        2.3885324721
  C        11.8399384865        0.4340710982        0.7947004717
  C        11.8329215843        2.6210105626       -0.2345998181
  H        11.4173775211        1.8190447421       16.2575440617
  H        12.6424399027        3.0232212166       15.6657608255
  C        13.2185931695        1.8153166368       17.3635048028
  H         6.8798922488        8.8328598712       16.8632893121
  C         6.5897410308        7.2689757619       18.0550835276
  H        13.7858389334        7.1467170578        6.1554590364
  H        14.6147819650        6.7434252839        4.5187671643
  C        15.2222040071        5.4534705866        5.9734853796
  H         7.5712240440        7.1463365400        2.3869954317
  H         7.4843705870        5.7338548186        1.4197247732
  C         5.6643655138        5.8748796133        2.5363460935
  N        11.7366935316       -0.5814751978        1.7676375402
  C        12.2292344958       -0.1324148777       -0.4045020543
  C        12.2306164425        2.1049565418       -1.4305553521
  H        11.7410438752        3.6645832828       -0.1745809369
  H        12.9764150024        2.5799988405       17.9865013609
  H        14.3168228239        1.7462493811       17.1453080692
  H        12.9595912465        0.9628966400       17.9045683180
  S         6.2569228272        5.5943729483       18.4715125249
  C         6.4480286966        8.1560678289       19.1905700461
  H        14.8424432626        4.9884661097        6.8700741664
  H        15.4712914885        4.6941710406        5.2687631143
  C        16.3722853294        6.1990139124        6.5369608894
  H         5.4243348849        6.1716930934        3.5676027540
  H         5.3733891119        4.8384824332        2.4490760537
  C         4.9353522645        6.8142179678        1.5813583008
  S        11.9282536626       -2.0098009470        1.1739002770
  N        12.3982817734       -1.5097908814       -0.3010499804
  C        12.4041970332        0.6320743933       -1.5860622686
  H        12.2269058342        2.7253486665       -2.2765391139
  C         5.9724051006        6.1844602307       20.1158611681
  N         5.9418574420        7.5114068853       20.2313086788
  O         6.5721816375        9.3975778126       19.1579375105
  H        16.4594200171        7.1112850349        6.0185125252
  H        16.2204948726        6.3855437881        7.5678209682
  C        17.5521356684        5.2286316917        6.5519330875
  H         5.6845968401        7.5156213589        1.2193463410
  H         4.6800645747        6.2144901340        0.6920142231
  C         3.8059063080        7.6418298476        2.2019842847
  C        12.7336568820       -0.0821214573       -2.7927040975
  S         5.3651999469        5.2237413205       21.4603665244
  C         5.6938058915        8.2086441931       21.4458281688
  H        17.2138481217        4.2499034185        6.9775118088
  H        17.9320370273        5.0496135519        5.5373312944
  C        18.7143896127        5.7200295119        7.4299925901
  H         3.7575015864        7.4245999842        3.3179045989
  H         2.8795160212        7.1392586788        1.8726372074
  C         3.8392389929        9.0979607756        1.7872771161
  H        12.7717465079       -1.2166965359       -2.6360968503
  C        13.3356762782        0.3500626961       -3.9127205906
  H         4.7902184416        7.7590318256       21.8904412644
  H         5.2669544804        9.1932448880       21.3646971035
  C         6.8852261457        8.1784867096       22.3959823092
  H        18.9229304096        4.9492874363        8.1543353154
  H        18.4349658381        6.6100461366        7.9897690507
  C        20.0667221075        5.9059352503        6.7134251975
  H         3.1477700361        9.7138095571        2.4579468167
  H         4.8629074315        9.5774267556        1.9072286579
  C         3.5101678373        9.3188456066        0.2940386551
  S        13.8612496844        1.9236482865       -4.3012362893
  C        13.5925941775       -0.7053759837       -4.9672733871
  H         6.9021928988        7.1356192897       22.7313051030
  H         6.8446346389        8.8239112928       23.2545394810
  H         7.8593955356        8.3287239498       21.8205868567
  H        20.0048782057        6.4400080494        5.7671819740
  H        20.6431142673        6.5187658745        7.3659642069
  H        20.5867022769        4.9786638869        6.5556673772
  H         4.2356104992        9.9446538275       -0.1934384429
  H         3.5725102303        8.3089449600       -0.2224014969
  H         2.5248267623        9.6565921545       -0.0275223129
  C        14.4113388347        1.2034200217       -5.8717926365
  N        14.2301150295       -0.1674462144       -6.0350946540
  O        13.4565673105       -1.9301440984       -4.7344803183
  S        15.1699864944        2.0358370551       -7.2273067900
  C        14.6020755279       -1.0237554209       -7.2067533524
  H        14.6458709862       -2.1039074030       -6.9637054260
  H        15.6156837267       -0.9542101860       -7.5602583841
  C        13.5894237288       -0.6821331726       -8.3741494552
  H        14.2489228638       -0.5254500855       -9.2570834641
  H        12.9397423083        0.2127543512       -8.1305986679
  H        12.9363062053       -1.4793199369       -8.6190516432
  H        -3.7514800830       14.7294068077       16.3938578013
  C        -3.1647264878       13.8175865693       16.3720683483
  H        -3.8004199877       13.0399070021       16.5229353324
  C        -2.0043531333       13.8862812687       17.3555116843
  C        -2.6727740220       13.4831667349       14.9294195774
  C        -2.4235833538       13.3813923207       18.7466866540
  H        -1.2007741997       13.2638663788       16.9604169260
  H        -1.6970037305       14.9056708532       17.4959127796
  H        -2.7561023582       12.4489733662       14.7745850573
  H        -3.4224265275       13.8890833108       14.1622226318
  H        -1.7544139123       13.8364220955       14.5763609756
  C        -1.5391810521       13.8492610462       19.8569656916
  H        -2.4044633302       12.3102742642       18.7804788260
  H        -3.4429265033       13.7683521077       18.8488551414
  C        -2.1418379557       13.5398824932       21.2353383773
  H        -0.5564782044       13.5198020999       19.6630387816
  H        -1.4739407221       14.9406470416       19.8356184604
  C        -1.0580253836       12.6735810284       21.9306833299
  H        -2.9844959003       12.8061845334       21.1190933169
  H        -2.3882072408       14.4103369451       21.8197550516
  C         0.0723116935       13.5051190179       22.5440978632
  H        -1.5641682978       12.1618612141       22.7325565232
  H        -0.6857045562       11.8610970171       21.2889172317
  C         1.1664634448       12.8323230325       23.2351632898
  H         0.5283330864       14.1203332005       21.7655922446
  H        -0.3219606599       14.2358950366       23.3039013836
  C         1.4871291002       11.4764404951       22.6063131337
  C         0.7010298885       12.1638705770       24.5169511690
  C         2.4458918389       13.6831349820       23.2955318141
  C         1.3678311191       10.4105487595       23.4816158641
  C         1.9557753354       11.0687685614       21.3979136619
  C         0.8204079233       10.8098192881       24.6764183388
  C         0.2799943271       12.8008328484       25.6760802113
  H         2.7063918921       14.0653031835       22.3320574485
  H         2.3196370799       14.5961514836       23.8221187418
  C         3.5961683000       13.0006571446       24.0080123785
  S         1.8667776821        8.9279490479       22.8078504554
  C         2.1956546734        9.7476500426       21.3171445104
  H         2.0963027613       11.9322114808       20.7045043898
  C         0.5475119229       10.1730121851       25.8287229213
  H         0.1449291377       13.8276258883       25.5732611597
  C        -0.1351710131       12.1535588193       26.7811623320
  H         3.9453526338       12.0474686959       23.6031677379
  H         3.2596464940       12.7830922507       24.9934527755
  C         4.7485961287       13.8838425104       24.2368734839
  C         2.5977527174        9.0993176972       19.9956876528
  C        -0.0545344089       10.7971866333       26.9259037806
  H         0.6316918066        9.1203457041       26.0330057010
  C        -0.5087529755       12.6007756375       28.0084406351
  H         5.3901960930       13.2638592667       24.8996718283
  H         4.5091378654       14.7751142334       24.7817037756
  C         5.4900433108       14.1864038863       23.0156541898
  C         2.5385232077        7.7006505253       19.7662839839
  C         2.9800066883        9.9234439716       18.8634177058
  C        -0.4199782587       10.1749331038       28.2354252949
  C        -0.7589911574       11.5500775617       28.8878903468
  S        -0.8977622787       14.1794964413       28.6919180925
  H         6.0590835633       15.0160047150       23.2328041644
  H         4.8357445203       14.4106298031       22.1794887776
  C         6.5591308607       13.1821103477       22.5771071913
  N         2.3686318758        6.7318734524       20.8120667695
  C         2.9790642134        7.0809882650       18.6185165873
  C         3.3301866736        9.2866507311       17.6396151873
  H         3.1248493186       10.9700701079       19.0368068653
  C         0.6390775935        9.3881475505       29.0506084180
  C        -1.6757257372        9.2551277500       27.9993689202
  C        -1.1097617145       12.0023983204       30.1539812635
  C        -1.3136447977       13.3811358294       30.1814506024
  H         7.3120829391       13.8242845143       22.0895336479
  H         7.0450637268       12.7526933414       23.3556965664
  C         6.1027028170       12.0931595549       21.5572457179
  S         2.3658722007        5.2027766884       20.1313685177
  N         2.8471136658        5.6985136494       18.6058817741
  C         3.2591667127        7.8182371802       17.4680644420
  H         3.7809114148        9.9701660784       16.8542668732
  H         1.1794190256        8.6336168017       28.4643272610
  H         0.0868716147        8.7968405732       29.8431711292
  C         1.7153081289       10.2983491756       29.7676478203
  H        -1.4857292683        8.5430223508       27.1441976382
  H        -1.8206821963        8.6220468694       28.8960626888
  C        -2.9066311114       10.1015690789       27.5618876742
  H        -1.3414088785       11.3225039913       30.9854629925
  C        -1.7331236511       14.1608454846       31.3942756619
  H         5.1342102230       11.7786768529       21.7609182624
  H         6.6617708474       11.2170059620       21.6634985056
  C         6.1493774427       12.6134940486       20.0878327073
  C         3.4492378230        7.1841707333       16.1916493830
  H         2.3458883138       10.8615381645       28.9876543215
  H         1.3784672533       11.0577153185       30.4739330424
  C         2.7983090163        9.3639922195       30.3082300336
  H        -2.5795233944       10.6476334982       26.6929147536
  H        -3.2301026431       10.8523277035       28.2579816964
  C        -4.0854963828        9.2685740050       27.2164992771
  C        -1.8144680138       15.5983196415       31.4341343063
  C        -1.9616976868       13.4553483152       32.6304070031
  H         5.5579461066       11.9053869532       19.5059617619
  H         5.6490552093       13.5796232757       19.9833635304
  C         7.5229172226       12.6832450657       19.3146094426
  H         3.4953068715        6.1369814450       16.3173585758
  C         3.6572603819        7.6618308180       14.9415240195
  H         3.2918922743        8.7692822806       29.5513707119
  H         2.4136848464        8.7494753070       31.0890748448
  C         3.8140226328       10.2502286380       31.0249007677
  H        -3.9184952692        8.6538429675       26.3993040013
  H        -4.2143516461        8.6261859317       28.0876077129
  C        -5.2135822998       10.1961829623       26.8016095696
  N        -1.5733449977       16.4958543473       30.4162988418
  C        -2.0509710383       16.3097671508       32.6170428504
  C        -2.2240587859       14.1477639187       33.8437333298
  H        -1.8749779105       12.3868752890       32.6242347907
  H         7.2892694720       13.0322125793       18.2914338194
  H         8.1901100539       13.4012263225       19.8178437654
  H         8.0366372090       11.7157138698       19.2956215324
  S         4.0792939037        9.2891864074       14.5111568255
  C         3.6543520144        6.6640261366       13.8677760415
  H         3.9000889741       11.2062274032       30.4298696567
  H         3.5582395534       10.5406521530       32.0985909321
  C         5.2144815069        9.6975204052       31.1938668375
  H        -4.8293503907       11.0526395550       26.1649696258
  H        -5.5562054773       10.6211021022       27.7366817911
  C        -6.3573577871        9.4962317262       25.9945822312
  S        -1.6792148560       18.0256097097       30.9150673879
  N        -2.0012618636       17.6934617206       32.4643166079
  C        -2.3588020985       15.6528278417       33.8565587709
  H        -2.3131450833       13.5460730387       34.7374709105
  C         4.4161841362        8.5440373272       12.9085188443
  N         4.2122264954        7.2194744065       12.8080085270
  O         3.3988714871        5.4817414411       13.9829512669
  H         5.8544773704       10.3413656767       31.7693659007
  H         5.6341690543        9.5099213888       30.2350715747
  C         5.2279094083        8.3943219080       32.0047772254
  H        -5.9041042098        8.8040750364       25.2192149994
  H        -7.0199395015        8.9582136979       26.6576119528
  C        -7.2354981403       10.5312361988       25.2882251919
  C        -2.5906216523       16.4274324224       35.0266353239
  S         5.1011038013        9.3477536021       11.5358390099
  C         4.3886230330        6.4181371671       11.6458615014
  H         6.0309399946        8.4755653570       32.6764485562
  H         4.3067127518        8.3192185101       32.5113639018
  C         5.3553595522        7.1391229666       31.1101915840
  H        -6.7353311440       10.7967861487       24.3458454636
  H        -7.3572887988       11.4702826015       25.8488608947
  C        -8.6088575964        9.9496188659       24.8439402621
  H        -2.4024742191       17.4837988731       34.8535089424
  C        -3.0773244655       16.1412799213       36.2816443299
  H         4.8740495640        6.9508938747       10.8034184924
  H         4.8975732944        5.5170956621       11.7435215001
  C         3.0264334094        6.0780149446       10.9959289263
  H         4.8044612840        7.1943566054       30.1763068560
  H         4.8432211618        6.3914097317       31.7537346586
  C         6.7907431460        6.6569842395       30.7665863212
  H        -8.8019635478       10.4457220083       23.8716063690
  H        -8.4747925844        8.8760382193       24.6434550423
  C        -9.6563922100       10.0795252652       25.9049388483
  S        -3.5726031867       14.5965199752       36.8285632227
  C        -3.2226071225       17.2217716621       37.2270678596
  H         2.9640871970        6.6296116110       10.1117985240
  H         2.9056687300        5.0161001930       10.6947417037
  H         2.1807025634        6.2974607654       11.6099174950
  H         7.4687564461        7.4659239422       30.7365351353
  H         6.8109912867        6.2177859085       29.7783897298
  H         7.1928889910        5.7646601576       31.4110122321
  H        -9.6042184544       11.0334446798       26.3663535746
  H        -9.6596089190        9.2839551087       26.6233609061
  H       -10.5543028134        9.9071006116       25.4794451597
  C        -3.8619457924       15.3922630274       38.3802395365
  N        -3.7827498912       16.7185829033       38.3386251362
  O        -2.8655804408       18.4154098344       36.9888772459
  S        -4.6079655305       14.5950314377       39.8308863835
  C        -4.1045508869       17.5847846573       39.4755616873
  H        -4.5227864304       18.5389540605       39.0966381958
  H        -4.8793033461       17.2230989174       40.1530304689
  C        -2.8073172136       17.7083410275       40.3227829640
  H        -2.4340374104       16.7721626321       40.7345532002
  H        -1.9256783618       18.0727433020       39.7083958507
  H        -2.8739968522       18.4151096720       41.1831353382
