352
i=
  H         4.6166575534        3.1172491906       12.4597317445
  C         3.6389382619        2.6641208396       12.4582912419
  H         2.9041681317        3.4008828664       12.4567513263
  C         3.5953747185        1.5832811764       11.2910669500
  C         3.4871155917        2.1022525632       13.8360591726
  C         4.3388533796        2.0363648689        9.9829449214
  H         2.5466324096        1.2999076340       11.0111323435
  H         3.9869804697        0.6059053134       11.7045714183
  H         2.8153666033        1.2468813288       13.9216952734
  H         3.2386381407        2.8498838644       14.6069506895
  H         4.4350090477        1.6520946687       14.1046735152
  C         5.5509992712        1.2416903390        9.5733974123
  H         3.6438007651        1.8276787247        9.1374090158
  H         4.5315793152        3.0532432185       10.0001965363
  C         6.2065703395        1.7083787623        8.2124840124
  H         5.4267992786        0.1457387502        9.4385780201
  H         6.4146371678        1.3109636213       10.2216336950
  C         7.3187116868        2.7124554558        8.3677567472
  H         5.4035568520        2.1320333998        7.6707266377
  H         6.4875345336        0.8941157245        7.5260808150
  C         8.6833107324        2.0684373608        8.6175499292
  H         7.3367180445        3.2763470190        7.4169989056
  H         6.9226811874        3.3996942358        9.1646088724
  C         9.7370693008        3.0584305661        9.0829717581
  H         9.0013116126        1.6005434751        7.7405968660
  H         8.5992882861        1.2525483600        9.3156860802
  C         9.2361246092        4.3038436835        9.7782585162
  C        10.1636089680        3.8540287833        7.9060106760
  C        10.9077371812        2.3274024782        9.8166206280
  C         9.3394043806        5.4495794225        8.9609158232
  C         8.7181330310        4.6356442240       11.0664461780
  C         9.8482538361        5.1330818775        7.7357381697
  C        10.5923915949        3.2219768174        6.7139899763
  H        10.4831631494        1.9204207705       10.6809776476
  H        11.2791213169        1.4875771886        9.2321050560
  C        12.1818689633        3.2584773947       10.1155135203
  S         8.7986969141        6.8634828440        9.7618102533
  C         8.4592481667        5.9498352533       11.2220890418
  H         8.7483396757        3.8071903855       11.7802031436
  C        10.1332600294        5.8317906590        6.5587493281
  H        10.8020594618        2.1354675575        6.7925964263
  C        10.7043683519        3.8440096605        5.5137230997
  H        11.8075266167        4.2569634208       10.5059884788
  H        12.7805653824        3.4267274772        9.2354327852
  C        13.1261438690        2.7932238921       11.2320682592
  C         8.0547521845        6.5826068602       12.4550408742
  C        10.6099974162        5.1712553540        5.4075856500
  H         9.7438908776        6.8215197524        6.6085470402
  C        10.9507893343        3.3300466463        4.2113099099
  H        13.9870729708        3.4127581858       11.2046403235
  H        13.4372304345        1.8158225418       10.9984164477
  C        12.5172128072        2.8746611563       12.6346391026
  C         7.8903601304        7.9859800398       12.6196020660
  C         7.5375140002        5.7565880192       13.5872506047
  C        10.9016055195        5.7802012447        4.0712769522
  C        11.1928024015        4.4295828048        3.4147348749
  S        11.3062821643        1.7727793405        3.5561355482
  H        11.9522747732        3.7704398368       12.7746510557
  H        11.7940874271        2.1196534332       12.6625302202
  C        13.4865974544        2.6444485914       13.7709629619
  N         8.1571524548        8.9602319641       11.6513385483
  C         7.4757813591        8.5948194910       13.7923440507
  C         7.0004062731        6.3589407528       14.7536980004
  H         7.4575034157        4.6620362052       13.4910812777
  C        12.1216979093        6.6256066052        4.1961034069
  C         9.7229747074        6.4965595801        3.3038759457
  C        11.4831565222        3.9608048654        2.1496848707
  C        11.5192696387        2.6146892584        2.0599082364
  H        14.2315083137        3.4724640322       13.7863613137
  H        13.8836393840        1.6555663507       13.5696954883
  C        12.8626834108        2.4836640357       15.1753687225
  S         8.1715361156       10.4014879199       12.3703292778
  N         7.7020747757        9.9946158847       13.8325733068
  C         7.0438834996        7.8637318359       14.9423439280
  H         6.6216058213        5.7323203055       15.4671543156
  H        11.8108465961        7.4657690168        4.7406717813
  H        12.4496786702        6.8933731419        3.1766120771
  C        13.3120855287        5.8685355436        4.8258585065
  H         9.4909235155        7.3842094667        3.8365129474
  H        10.1494696476        7.0043837048        2.4590606053
  C         8.5243399597        5.6594232167        2.8688699437
  H        11.5819708977        4.6600808206        1.3344394435
  C        11.7285202311        1.8882054748        0.7882827696
  H        12.2398700158        3.3945934630       15.3410890818
  H        12.2175705466        1.6222194920       15.1118518706
  C        13.9317062416        2.3146341873       16.3008907090
  C         6.7911189908        8.5710853912       16.1951197370
  H        13.1669377774        5.7177463331        5.8447692033
  H        13.3870877919        4.9170308179        4.2998851775
  C        14.5687004370        6.6450999725        4.6584508064
  H         8.2301131231        5.2198305316        3.8429814294
  H         8.8467251131        4.8546998058        2.2175939805
  C         7.3966744333        6.4245721255        2.1778026878
  C        11.7292244566        0.4501149002        0.6201947908
  C        11.8796546013        2.6449165105       -0.4553987276
  H        14.7783300357        2.9668439590       16.0738840966
  H        14.1815116162        1.2955066046       16.3908848500
  C        13.5003262237        2.8510967481       17.7017225784
  H         6.9530657730        9.6624990278       16.1111001350
  C         6.5562329550        8.0330989816       17.4356717409
  H        14.4496021179        7.5693763778        5.2032143638
  H        14.8484753905        6.9664024975        3.6587561009
  C        15.7491461167        5.8161092443        5.1654326911
  H         7.2936511038        7.4161082041        2.6347665775
  H         7.7929817190        6.6585237694        1.2076190448
  C         6.0562984027        5.6068120546        2.1406691555
  N        11.6270663067       -0.5645978740        1.6366871464
  C        12.0646113524       -0.1417552365       -0.5951351701
  C        12.1423724710        2.0526794496       -1.6873537538
  H        11.8733643057        3.7127359196       -0.4116094950
  H        12.5752589710        2.3253024041       17.9194621634
  H        13.3101697474        3.8465291225       17.6330006613
  H        14.4313545539        2.7114959366       18.3586195892
  S         6.1965701737        6.4341945367       17.8435435119
  C         6.5075576072        9.0230457416       18.6027770953
  H        15.4992168747        4.8258187972        5.5822711307
  H        16.4352158162        5.6470919537        4.3207794753
  C        16.5806521490        6.4865127918        6.3462690866
  H         5.8274748714        5.5119671190        3.1951640940
  H         6.2160042766        4.6276925444        1.7807931684
  C         4.7893194630        6.1775707693        1.3990118662
  S        11.6906818815       -1.9975538685        0.9268621012
  N        12.0687153202       -1.5467538087       -0.5763569062
  C        12.2006550766        0.5542836704       -1.8082383823
  H        12.3725151795        2.6582889240       -2.5572857603
  C         6.1418284666        7.0182644058       19.5237770938
  N         6.1919677612        8.3455705092       19.7840934562
  O         6.5878058625       10.2654081729       18.3444400006
  H        17.1622840765        7.3464033930        5.9596233519
  H        15.9246565907        6.8748493153        7.1306673425
  C        17.3598782821        5.4572276045        7.1434876480
  H         4.9796497384        6.1795429159        0.3000832348
  H         3.9230884625        5.5362548822        1.4907542869
  C         4.2637764127        7.5109999160        1.9383306668
  C        12.5314422701       -0.2415607958       -2.9316440805
  S         5.7587486050        6.1426395316       21.0274941129
  C         6.1488704853        9.0278813745       21.0865127037
  H        16.7755577931        5.0536794964        7.9493418666
  H        17.4140587733        4.5646439062        6.5901901697
  C        18.6284213966        6.0205600488        7.7191572216
  H         4.6618357259        7.5944220617        2.9255872122
  H         3.1761899999        7.5596259768        1.8999175674
  C         4.7436993698        8.6165620933        0.9334222356
  H        12.4536455683       -1.3057797285       -2.8355300628
  C        12.9522678980        0.0242595638       -4.1978801737
  H         5.2327391478        8.6905814051       21.5947701038
  H         5.9599155007       10.0740511712       20.8980647918
  C         7.5139457762        8.9100643295       21.8137831098
  H        19.0402871407        5.4966354031        8.5754478494
  H        18.5405959975        7.0764814410        7.9543821369
  C        19.6622953430        6.0579440297        6.5913257622
  H         5.8539482033        8.5887183932        0.7914424258
  H         4.3323561016        8.4741427762       -0.0512333641
  C         4.3685745715       10.0120500536        1.4866034472
  S        13.4121700729        1.5846775490       -4.7479569432
  C        13.1572915472       -1.0811753581       -5.1806649284
  H         8.4155866753        8.7024815737       21.2022474174
  H         7.4684699748        8.2202882870       22.6813861661
  H         7.5864723091        9.9843395408       22.1209221908
  H        19.6871693984        5.1503423173        6.0926474057
  H        19.5025839771        6.7641777884        5.7678940507
  H        20.7281868238        6.2455020878        6.9113991553
  H         4.6343985614       10.1180624003        2.5103130538
  H         4.8157763767       10.7106143009        0.8561725721
  H         3.3281087424       10.1666504047        1.6003046690
  C        13.8049310958        0.7979244764       -6.3027637878
  N        13.6928202885       -0.5762679332       -6.2776043949
  O        12.9809794171       -2.2777533617       -4.8499291529
  S        14.3979655774        1.6273684980       -7.7529116881
  C        14.0018928875       -1.3997675827       -7.4338887743
  H        14.2317537699       -2.4061500843       -7.1572177630
  H        14.8644305809       -1.0677260676       -8.0166466193
  C        12.8322518594       -1.4990660349       -8.3914724682
  H        12.6101597792       -2.5588713725       -8.6072445214
  H        13.1835842052       -1.1124654857       -9.4086488320
  H        11.8849580131       -1.0689884462       -8.1322451108
  H        -3.0175770749       14.7301485671       16.0227235959
  C        -2.9132876100       13.6982599760       16.3069512797
  H        -3.8858095663       13.4930316039       16.6209884786
  C        -1.8370365527       13.5541939734       17.3432173139
  C        -2.5731375848       12.9278399372       15.0269373488
  C        -2.4825838257       13.6596063544       18.7041756224
  H        -1.4022557329       12.5754983892       17.2646038748
  H        -1.0915327248       14.2395861175       17.2764936391
  H        -1.7616688537       13.4083975400       14.5480191817
  H        -2.3738667854       11.8660011990       15.2154401948
  H        -3.3994169884       12.9843955345       14.2356376486
  C        -1.4676438739       13.4832334707       19.7934099298
  H        -3.3519050235       12.8572076116       18.7262977550
  H        -2.9588266231       14.6585519416       18.8488588675
  C        -2.2363796117       13.5862178997       21.1071033002
  H        -0.9582804434       12.5010202098       19.6969994672
  H        -0.6683867589       14.0866718768       19.6739933661
  C        -1.3462672788       13.0697622987       22.2193508458
  H        -3.2273662129       13.1545782335       20.9974539772
  H        -2.3688299006       14.6372172590       21.2444101549
  C        -0.2030264686       13.9611527780       22.6887668428
  H        -1.9764852460       12.7305390627       23.0680939828
  H        -0.9404459010       12.1989856965       21.8452440843
  C         1.0855973599       13.3012728041       23.3798439067
  H         0.2113632588       14.4722280917       21.9046489987
  H        -0.6071848905       14.5944620729       23.4332992484
  C         1.5398195829       12.0587705814       22.6340558901
  C         0.7431793480       12.5817602136       24.6189833225
  C         2.1980649832       14.4016929801       23.4438867084
  C         1.3465836106       10.9347686507       23.4687888446
  C         2.1281111545       11.6805168925       21.4192475267
  C         0.8558684235       11.2565213365       24.7048059621
  C         0.2983874001       13.2032486930       25.8338411121
  H         2.3493130025       14.9320324095       22.4538047626
  H         1.9157052723       15.2503868169       24.1672759332
  C         3.5598379847       13.7963858175       23.7806054836
  S         1.8195279384        9.4851444374       22.7826383220
  C         2.3471802854       10.3481952555       21.3724496586
  H         2.3665962124       12.3677097229       20.6702529149
  C         0.5801431957       10.5989374393       25.8676072285
  H         0.3977265099       14.2364242666       25.7342618268
  C        -0.0022694548       12.5485249954       27.0133655215
  H         3.9867219038       12.9824323144       23.1872474760
  H         3.4261444717       13.2978791146       24.7163901611
  C         4.7708716202       14.7110519698       23.9901651051
  C         2.6706526503        9.6303580565       20.1176008042
  C         0.1313446694       11.1771572971       27.0516447282
  H         0.6620543768        9.4822866404       25.8847500126
  C        -0.4398458755       12.8065105845       28.1914042283
  H         5.4280428942       14.2189279903       24.7531812527
  H         4.3849330417       15.5965172422       24.3790030457
  C         5.5621591972       15.1742714193       22.7126556232
  C         2.5381000022        8.2435799575       19.8608825247
  C         3.0259135584       10.4673088450       18.9725865619
  C        -0.3650157594       10.3801338264       28.1902900904
  C        -0.7459987257       11.7093472269       28.9187463667
  S        -0.8383347069       14.2968791359       28.9482131394
  H         6.0635268187       16.0335315035       23.0964107054
  H         4.9631553162       15.4052039707       21.8287307340
  C         6.6672151867       14.2820982354       22.2507288535
  N         2.2816043968        7.2736371403       20.8518438362
  C         2.8267494756        7.6021402630       18.6504164505
  C         3.4423213347        9.7905860381       17.8452424276
  H         3.1785436143       11.5391342030       19.0107022084
  C         0.6391034807        9.5847654563       29.0170390927
  C        -1.5852921734        9.4957763296       27.7943818813
  C        -1.2897022101       12.0349312748       30.1833750101
  C        -1.3933974288       13.3895903590       30.3115314218
  H         7.5021804343       14.8939929921       21.9448002512
  H         6.9383303492       13.6002150338       23.1079631570
  C         6.3301065716       13.3248085636       21.0684217093
  S         2.2105203005        5.7977934470       20.1262510454
  N         2.6913752861        6.2248494710       18.6599622328
  C         3.1579669665        8.3684328021       17.4877585604
  H         3.6343653162       10.4460274524       17.0440501409
  H         1.0571139080        8.8707012496       28.3409058142
  H         0.2010567798        8.9031164172       29.7691689039
  C         1.8113687904       10.3422496458       29.6744642481
  H        -1.3720919793        8.8295111583       26.9283312761
  H        -1.8602263401        8.8365224644       28.6274475146
  C        -2.8161022190       10.3528991189       27.3602780557
  H        -1.5742635235       11.2209721753       30.8371661394
  C        -1.7403993231       14.1272966192       31.5124270508
  H         5.3835104808       12.8214909556       21.1867285101
  H         7.0512453944       12.4520495406       21.1752495510
  C         6.4430819944       13.8460924003       19.6610604590
  C         3.4679440940        7.6442019746       16.2771836189
  H         2.0358321735       11.1927136061       29.0299453241
  H         1.4187501027       10.7354593098       30.6949448452
  C         3.0096940010        9.5411351212       29.9089444966
  H        -2.6784562491       11.0399775371       26.5182577865
  H        -3.1574268759       10.8991531248       28.2880705847
  C        -4.0308360915        9.5305664610       27.0727824078
  C        -1.7586202872       15.5378035045       31.7277894715
  C        -2.0030634524       13.2776630214       32.7543520368
  H         5.9006417586       13.2299245448       18.9982485463
  H         6.0116105353       14.8647666558       19.5518898209
  C         7.8667249751       13.9279796097       19.1063700974
  H         3.3830801420        6.5910480479       16.3368394059
  C         3.8010990750        8.0374578678       14.9882509205
  H         3.2889046728        8.9742587361       29.0013894058
  H         2.7197139894        8.7442368108       30.5535914877
  C         4.0705330612       10.2718500934       30.7227607008
  H        -3.8985384047        8.9416992237       26.1943328213
  H        -4.1869322901        8.9774780881       27.9988364006
  C        -5.2570026322       10.3989708944       26.8071757663
  N        -1.5345637405       16.4881333696       30.7726724199
  C        -2.0698579301       16.0882371971       32.9577722406
  C        -2.3357518495       13.8631050306       33.9560660330
  H        -1.9857790010       12.2144598511       32.6871628702
  H         8.4787876162       14.2399223643       19.9462048192
  H         8.2082272096       13.0168952717       18.5850970352
  H         7.9970786387       14.7915236368       18.4000701694
  S         3.9578053795        9.7078683613       14.5337110451
  C         3.9419846692        7.0064099917       13.9360923158
  H         3.8995469464       11.3722160402       30.7982895620
  H         4.0360664040        9.8469634551       31.6891661659
  C         5.4854716798        9.9705558023       30.1097473467
  H        -4.9444502763       11.2437773843       26.1760530962
  H        -5.7296871014       10.7189958914       27.7646983886
  C        -6.3002975851        9.6653726796       26.0492418840
  S        -1.6568544284       17.9730060834       31.4712873180
  N        -1.9920443177       17.4944979617       32.9169994941
  C        -2.3719866058       15.3227683726       34.1173773423
  H        -2.5237904423       13.1606329773       34.7342008135
  C         4.2157049806        8.9472449646       12.8784716529
  N         4.2477067151        7.6129808186       12.8017313055
  O         3.9616295104        5.7926768017       14.1138120459
  H         6.0870557391       10.8309031944       30.0219106362
  H         5.4348334281        9.6826692828       29.0475489158
  C         6.3035239682        8.8312350266       30.7930136842
  H        -5.8760749209        9.2054431035       25.1534723358
  H        -6.5505520356        8.7394015815       26.6229323730
  C        -7.3758647481       10.7006577644       25.7762657281
  C        -2.5338065534       16.0357050511       35.3231250405
  S         4.9045167668        9.7261056689       11.4854827389
  C         4.4766353899        6.8496418407       11.5647631925
  H         7.3469839957        8.9943190735       30.5131951497
  H         6.1941072831        8.8528313301       31.8698947545
  C         5.6860497268        7.4330423833       30.4273560946
  H        -6.9342620122       11.4151068381       25.1802712430
  H        -7.6724956635       11.1564695004       26.6533558388
  C        -8.5199541321       10.1703328233       24.9902582542
  H        -2.1475424444       17.0601890507       35.2782467816
  C        -2.9562005981       15.6154231045       36.5523493635
  H         5.2586766314        7.2460065600       10.9570965892
  H         4.8212690412        5.8294839125       11.6800166429
  C         3.2556395350        6.8894850617       10.5964054936
  H         5.6757210346        7.3312871008       29.3215252861
  H         4.6636598840        7.2757130373       30.8676117762
  C         6.5485810250        6.4344490611       31.1634619007
  H        -8.7912318296       10.8841153412       24.1904731208
  H        -8.2236202425        9.2814614018       24.3602412057
  C        -9.7897706768        9.8385633069       25.7334460125
  S        -3.5770617301       14.0183250644       36.9376316172
  C        -3.2947191561       16.6793589188       37.5321803808
  H         3.2445056828        7.8299912854       10.0434621763
  H         3.4087041550        6.0525580415        9.9475249570
  H         2.2874019821        6.8353352491       11.0916157520
  H         7.0400406627        5.8513966248       30.4437962000
  H         5.7834715802        5.7873613819       31.5720648285
  H         7.1202803690        6.7840089378       31.9444185749
  H       -10.4829599135        9.5228381285       24.9690269252
  H       -10.1155627438       10.6626612028       26.4062444857
  H        -9.6515162003        8.9241330852       26.3428919132
  C        -4.0031749730       14.7424888207       38.4847680401
  N        -3.7937445919       16.0602104154       38.6098965566
  O        -3.0265828917       17.8880834071       37.3913741133
  S        -4.6495943364       13.8406924658       39.8492723354
  C        -3.9733378732       16.8439988120       39.8622503407
  H        -4.5013826275       17.7818802012       39.6100755131
  H        -4.4771197211       16.3026606945       40.6652346472
  C        -2.5833757514       17.0882228284       40.4685443609
  H        -1.9579762444       16.2430256002       40.2333608364
  H        -1.9734159924       17.8789452466       39.9736953202
  H        -2.7384966510       17.1406758149       41.5335528845
