352
i=
  H         4.2109528306        3.4602955610       12.2189616584
  C         3.4662274447        2.6936076171       12.2724613364
  H         2.4457981461        3.0342752816       11.9785118018
  C         3.9049740481        1.6404942742       11.3293929509
  C         3.5527181858        2.1887245379       13.7938338322
  C         4.3575661864        2.1780298056       10.0362345756
  H         2.9916417921        1.0781330017       11.1669987390
  H         4.5659281453        0.9382767429       11.7688871675
  H         3.5286005150        1.1230248062       13.9236577599
  H         2.7968970815        2.6399993391       14.4335335130
  H         4.5295122283        2.4446109458       14.2394933485
  C         5.3736859891        1.2150606068        9.4632390701
  H         3.5811016186        2.2497896724        9.2965894411
  H         4.9047695942        3.1879503798       10.1119677374
  C         6.1021128822        1.7443887886        8.2567630003
  H         4.9633003030        0.3417144615        9.0585587700
  H         6.2017886601        0.8391626443       10.0387393391
  C         7.2136496471        2.6983520177        8.6120496527
  H         5.4289418953        2.2869443849        7.5690392452
  H         6.4650505970        0.9281779374        7.6787052652
  C         8.5546677461        2.0318018780        8.8750831461
  H         7.4539298322        3.3507271727        7.7821152140
  H         6.7854698791        3.3051090200        9.3566637894
  C         9.7765560479        3.0463501983        9.1145923022
  H         8.8004909228        1.3129385998        8.0247337104
  H         8.4290572466        1.3754110132        9.7477538561
  C         9.3625963235        4.3099109742        9.7799272729
  C        10.1922613379        3.7855602826        7.8502649785
  C        10.8818768950        2.3937049407        9.8945824417
  C         9.5011210990        5.4263417665        8.9914595723
  C         8.8219383981        4.6533886404       11.0400516990
  C         9.9945532027        5.1026196108        7.7661472472
  C        10.5845198292        3.1943794780        6.6415785072
  H        10.5242782458        2.1599172103       10.9524068226
  H        11.2052042980        1.4663239814        9.3867449378
  C        12.1607105674        3.2148348953       10.1232567983
  S         8.7568690565        6.8434438156        9.6517508010
  C         8.4087452189        5.9451932834       11.0674697969
  H         8.6781579686        3.8799679508       11.7783908036
  C        10.1006679901        5.7783115094        6.5332087044
  H        10.6089211639        2.1486953732        6.4189938000
  C        10.7831646287        3.8760905159        5.4686467775
  H        11.8591437033        4.1236789852       10.5417184741
  H        12.6011192297        3.3390145511        9.1058535661
  C        12.9784274929        2.5562470246       11.2430834139
  C         7.8428825309        6.5584269045       12.3227273341
  C        10.5847990346        5.2066874534        5.3515878941
  H         9.9210605613        6.8590226366        6.4147484818
  C        11.0062858697        3.4866560236        4.1819507795
  H        14.0022687909        2.9697090209       11.2092123867
  H        13.1581537372        1.4882945445       10.9888060248
  C        12.3066031891        2.7558092230       12.6201036102
  C         7.7996178841        7.9348382365       12.5415283524
  C         7.5678251041        5.6018486844       13.5175246307
  C        10.8172474617        5.8408641449        4.0133036694
  C        11.1165599567        4.5010510509        3.2887125745
  S        11.2545028052        1.9434418948        3.5211927493
  H        11.7228189815        3.7104936324       12.7741627151
  H        11.4773098434        1.9864288713       12.7951068862
  C        13.3751858761        2.5800044057       13.6856475657
  N         8.1920841090        8.8930776572       11.5997072228
  C         7.4650504092        8.4984833774       13.8120647374
  C         7.2935649825        6.2510989669       14.7630470188
  H         7.4082046759        4.5515846234       13.3470494500
  C        12.1038970674        6.6711689804        4.1683956906
  C         9.5669990627        6.6409010283        3.4233426773
  C        11.2216710972        4.0162227406        1.9358849851
  C        11.4902870958        2.6981008554        1.9414239018
  H        14.0530695424        3.3723668030       13.5015827840
  H        13.7609802476        1.5687402173       13.5615481630
  C        12.7658547112        2.5978344854       15.1075461792
  S         8.1483473858       10.3663133670       12.3512162605
  N         7.5199734179        9.8747012612       13.8248821497
  C         7.1847462629        7.7161689522       14.9768155123
  H         6.9449747854        5.6097608027       15.5910775107
  H        11.8775127318        7.5217183182        4.9187188048
  H        12.2549255893        7.0653205973        3.1583181735
  C        13.3524006267        5.8399607501        4.5857560886
  H         9.2771758969        7.4069509293        4.1357373716
  H         9.8671421661        7.3029596112        2.6371115255
  C         8.3975473985        5.7733546808        3.0114630182
  H        11.1651597528        4.7223751885        1.1491348775
  C        11.7557292649        1.8797012652        0.7140659026
  H        12.2903911191        3.4994794255       15.3383944633
  H        12.0427828395        1.7907816830       15.1859952562
  C        13.9059915922        2.4282137975       16.1742966753
  C         6.8448437310        8.3782372943       16.2100675929
  H        13.1628990215        5.3157007200        5.5983893220
  H        13.5288080350        5.0779129557        3.8469250752
  C        14.5869448848        6.6999740908        4.8190701916
  H         8.1550013782        5.1959026891        3.8922922043
  H         8.7571280195        5.0546130243        2.2467912778
  C         7.1723226332        6.5001366533        2.4171219035
  C        11.7921012351        0.4688181590        0.6168573850
  C        11.8681535116        2.6001001465       -0.5413035976
  H        14.6136816991        3.2005458619       15.8749009548
  H        14.3602954510        1.4045861117       15.9924148436
  C        13.2901124993        2.6597709049       17.5989785601
  H         6.8093631800        9.4237416298       16.0861164509
  C         6.5093359222        8.0025347021       17.4578553219
  H        14.4129563798        7.3839058701        5.6436984956
  H        14.7700758389        7.3597233358        3.9961760250
  C        15.8042262476        5.8604202742        5.0812363355
  H         6.9377678099        7.2742118799        3.1165547351
  H         7.4202707170        7.0450351857        1.5000954560
  C         6.1157073772        5.4704475525        2.1973850433
  N        11.7209878989       -0.3796428920        1.7020872218
  C        12.0748708905       -0.2440725793       -0.5778853950
  C        12.1189849672        1.9495653671       -1.7988080614
  H        11.9169118266        3.6357786872       -0.4991713113
  H        12.4809527240        1.9797842463       17.8440345183
  H        12.7964919587        3.7074717513       17.7461958820
  H        14.0623176274        2.6987693699       18.2729106052
  S         6.2414078908        6.3442144055       17.9961756541
  C         6.4807790284        9.0054289663       18.5475071107
  H        15.5452086920        4.9106764951        5.4757862024
  H        16.4370246126        5.8084204363        4.1996112785
  C        16.5242001428        6.4632311547        6.2658302175
  H         5.6433627977        5.2049433640        3.1473486359
  H         6.4689686272        4.4809169889        1.7687555920
  C         4.9634090659        5.9964526637        1.4234552303
  S        11.8362480881       -1.9137741314        1.1786140194
  N        12.2222229759       -1.6469463437       -0.3912033515
  C        12.2571558690        0.4148554362       -1.8291795147
  H        12.2102099513        2.6383121971       -2.6424828065
  C         6.1660001956        7.0388298891       19.5489286693
  N         6.2554005634        8.3463732987       19.6830605450
  O         6.5128856558       10.2662523980       18.3417375280
  H        17.1904125523        7.1960783544        5.8832241628
  H        15.9236473746        6.9580755038        7.0328780460
  C        17.2941329220        5.4351987312        6.9625832884
  H         5.1609644036        5.9946750223        0.3752174768
  H         4.1896784398        5.2255373577        1.5408144386
  C         4.5389896327        7.4112791691        1.8691324372
  C        12.6462785122       -0.3228220215       -3.0128532345
  S         5.9002917211        5.9503470161       20.9633788038
  C         6.3394228333        9.1011939760       20.9340849634
  H        16.6567626723        5.1720039385        7.8123474553
  H        17.3455842075        4.4530215754        6.4508060063
  C        18.5701481266        5.8855893143        7.6393768191
  H         5.0326810027        7.8631970356        2.7414739153
  H         3.4419764843        7.3537526092        2.0056790958
  C         4.8023326217        8.5553214771        0.8564798988
  H        12.7244545153       -1.3776603503       -2.8482521363
  C        13.0716667979        0.0363679073       -4.2905822285
  H         5.4416919181        8.9421400110       21.5445116725
  H         6.3836655912       10.1740303849       20.6410244005
  C         7.6060042583        8.8641126525       21.6334297719
  H        18.9652035318        5.1185714228        8.3157358205
  H        18.3840849850        6.8205050381        8.1621616612
  C        19.7511130618        6.1195820776        6.6761429059
  H         5.8485353181        8.6062682968        0.6933898396
  H         4.3578927900        8.2329316123       -0.0958624438
  C         4.2681262743        9.9634102272        1.2026961525
  S        13.5331175517        1.6223849929       -4.8634409649
  C        13.1885761938       -1.0924093649       -5.2557456330
  H         8.4114164509        8.9335540192       20.9011547797
  H         7.6675177891        7.8551597106       22.0285854354
  H         7.7954891035        9.6232210625       22.3705748843
  H        20.0782728008        5.2882341726        6.0355356980
  H        19.4665427621        6.8056603900        5.9398995874
  H        20.5763095475        6.5337724760        7.0986828065
  H         3.8347456281       10.0414889364        2.1958251020
  H         4.9728115843       10.8003022884        0.9367892435
  H         3.2941606101       10.1645927048        0.7336774416
  C        13.9338823691        0.7487503135       -6.3577119871
  N        13.8310250418       -0.5876741618       -6.3514060208
  O        12.9495487410       -2.2390923131       -5.0653339610
  S        14.5984790494        1.4621254471       -7.8044050026
  C        14.0302209991       -1.4745974799       -7.4829371785
  H        14.0966867901       -2.5122096202       -7.1302024826
  H        14.8998200095       -1.3111934755       -8.1016190888
  C        12.8014368854       -1.4290195010       -8.4339146409
  H        12.1958650718       -2.3081194403       -8.4806844356
  H        12.9331016438       -1.1304452469       -9.4155457802
  H        12.0855895430       -0.7277188302       -7.9636742789
  H        -3.3409620995       14.1521302930       15.6630557850
  C        -2.8801546142       13.2498235285       16.0338073959
  H        -3.7643368141       12.6053726522       16.2413594248
  C        -2.0345945426       13.5437667954       17.2677723686
  C        -2.0740319442       12.6857947983       14.8453438811
  C        -2.7006896088       13.8892870410       18.6486908730
  H        -1.3267860294       12.6941522235       17.4030322727
  H        -1.3305815423       14.4295510354       17.0241829370
  H        -1.4875188630       13.4974683554       14.3238612898
  H        -1.4841086433       11.8610293047       15.2387224303
  H        -2.6693534386       12.2352175218       14.1136242997
  C        -1.7635209128       13.6691408877       19.8178208752
  H        -3.4094592806       13.1843450759       18.7100117922
  H        -3.1734022079       14.8565987100       18.6810002816
  C        -2.3371130916       13.4900796736       21.2526455984
  H        -1.0349514747       12.9539748221       19.6088061321
  H        -1.0530239927       14.5682367191       19.7573704985
  C        -1.2783796267       12.9652165021       22.3075914298
  H        -3.1617845402       12.7543068627       21.1651184383
  H        -2.7933602910       14.4826603029       21.4619388611
  C        -0.1045755653       13.9562444865       22.7215011157
  H        -1.7791779104       12.7450623848       23.2378916058
  H        -0.8809927825       11.9562020131       21.9317444935
  C         1.1494417352       13.3357199030       23.3764707047
  H         0.3282600535       14.4271214719       21.7791159658
  H        -0.4962304420       14.7528569670       23.4115959430
  C         1.4684059648       12.0310957143       22.6267148056
  C         0.7223219269       12.5666301615       24.6126905441
  C         2.2698126426       14.3889906237       23.5174471261
  C         1.3950259290       10.8980228433       23.3856908174
  C         1.8725131964       11.6752025811       21.2623974255
  C         0.8515472043       11.1861786896       24.6366266949
  C         0.2758636236       13.1257183589       25.7887027905
  H         2.3168850651       14.9560675078       22.6205435000
  H         2.0768094754       15.0922613760       24.2671772590
  C         3.5862196405       13.7620142335       23.8391852943
  S         1.9011300104        9.4713382972       22.7310579102
  C         2.2070319035       10.3696472024       21.2369123068
  H         1.8839027439       12.4021946007       20.4571559799
  C         0.5286990434       10.5123287387       25.7772661967
  H         0.1205199819       14.2341733858       25.8253798591
  C        -0.0996633876       12.3854652050       26.8739344768
  H         3.9063439176       12.9846073479       23.1787949463
  H         3.5884063336       13.1877119030       24.7786011946
  C         4.7444106183       14.8380057882       23.9083137098
  C         2.7533555418        9.6480132738       20.0466481032
  C        -0.0112840200       11.0780768797       26.9301832392
  H         0.6039734177        9.5160472878       25.8100888870
  C        -0.4929697397       12.7811058240       28.1430875910
  H         5.5276154314       14.5939757396       24.5521711553
  H         4.3260642981       15.8324575459       24.2047636057
  C         5.2899994343       15.0299417291       22.5385987255
  C         2.5132479163        8.2570288170       19.8290750456
  C         3.4192815445       10.4240782519       18.9288129875
  C        -0.4832096946       10.3176303833       28.1372359228
  C        -0.7948143340       11.6038411806       28.8643531777
  S        -0.7859240303       14.2389953792       28.8538444730
  H         5.7803418815       16.0177957794       22.5193485002
  H         4.4759440742       14.9067354273       21.8339179357
  C         6.3996823180       14.0678486836       22.3448825283
  N         1.9904887551        7.3318286936       20.7687474967
  C         2.8632682482        7.6672620150       18.6511457996
  C         3.4913922176        9.7986668207       17.6797334765
  H         3.5624109742       11.4892498588       19.0717573236
  C         0.6518085296        9.4826550157       28.8418324975
  C        -1.7664583800        9.4287437411       27.9418943995
  C        -1.2899459932       12.0175251860       30.1097774528
  C        -1.3121558263       13.3681066593       30.2816401479
  H         7.3381211039       14.6271039870       22.1848694676
  H         6.4946118685       13.3766506093       23.1461051024
  C         6.2046989695       13.2341595534       21.0411378059
  S         1.9474520088        5.8553433949       20.0710765530
  N         2.5240596088        6.3511919217       18.6084545232
  C         3.2780026067        8.3224161580       17.4297019805
  H         4.0078260725       10.3010006941       16.8685855692
  H         1.1876796209        8.9247729473       28.0511544119
  H         0.2886421857        8.6385881939       29.3894452265
  C         1.6698050121       10.3542067268       29.6043000274
  H        -1.5780646303        8.6085851218       27.3142539656
  H        -2.1279002678        9.0700156399       28.8868846215
  C        -2.8769114071       10.3319206605       27.5080529075
  H        -1.4300022320       11.3314470626       30.9121089228
  C        -1.7064755650       14.1110993429       31.5356293690
  H         5.2243173937       12.7462600288       21.0867839703
  H         6.8658326075       12.4542984075       21.1796222381
  C         6.3895195900       13.9718738265       19.7132679493
  C         3.4140997339        7.6410419311       16.2261332442
  H         1.7878283293       11.2335517679       28.9702408158
  H         1.2617535664       10.6832408979       30.4735391731
  C         2.9572400543        9.5493532464       29.9908830685
  H        -2.5498239423       10.9589825324       26.6722603678
  H        -3.1828055240       10.9267977035       28.3518710246
  C        -4.0066423855        9.4514459118       26.9171175289
  C        -1.7547281750       15.5224856035       31.7221892890
  C        -1.9236988619       13.2796649776       32.7579321277
  H         5.8056038730       13.6148250823       18.8364745901
  H         6.0899956426       14.9669063102       19.8811596232
  C         7.8411074279       14.0773059014       19.2384029089
  H         3.3316087258        6.5813683754       16.3200810718
  C         3.6628435120        8.0232481071       14.8985877111
  H         3.2112367454        8.7829436510       29.2750412859
  H         2.7981669613        8.9529341809       30.9062681341
  C         4.0996967633       10.5466279716       30.3281119779
  H        -3.6765308035        8.9702923350       25.9747989448
  H        -4.1717831385        8.7695141761       27.7283445479
  C        -5.3509125632       10.2674938417       26.9221155148
  N        -1.5182120422       16.3994313544       30.7256103563
  C        -2.0169253711       16.1270776899       32.9652149868
  C        -2.1327288997       13.9391390803       33.9928111152
  H        -2.1022916534       12.2569093290       32.7515748745
  H         8.4916617318       14.7099924436       19.8178492046
  H         8.2395343018       13.0865854762       19.0707497251
  H         7.8291663226       14.5163556961       18.2802933308
  S         3.8551260979        9.6175372949       14.3186056172
  C         3.8510995136        6.9221307598       13.9740250328
  H         3.8879053071       11.5675621502       30.0018018935
  H         4.1146781514       10.4846327395       31.4570625491
  C         5.5171053414       10.0548149344       29.8715426583
  H        -4.9850994514       11.2316575748       26.5956635910
  H        -5.7672377882       10.3079269501       27.9115709831
  C        -6.4914929426        9.7123334112       26.0114217386
  S        -1.4845065708       17.9168961993       31.3119754497
  N        -1.9874875230       17.5191876075       32.8915479542
  C        -2.2599075613       15.3872430361       34.1421783417
  H        -2.3626459287       13.3722689201       34.9092200037
  C         4.3099113908        8.8055186369       12.7631461004
  N         4.2448339626        7.4439651835       12.8085661927
  O         3.9204076607        5.7345320095       14.3328234053
  H         6.1956485762       10.9434761204       29.8262370732
  H         5.4318565071        9.6789707058       28.8589547668
  C         6.2188709835        8.9021994407       30.6437972474
  H        -5.8912658882        9.2094855196       25.2871105976
  H        -7.0498379181        8.9154070763       26.3915114567
  C        -7.3070600623       10.8749334201       25.4090509143
  C        -2.6687637814       16.0928428063       35.3160564358
  S         4.8835802489        9.7328279426       11.3814262054
  C         4.3449373318        6.6896477905       11.6017635325
  H         7.2974672476        8.7703390217       30.4519825984
  H         6.0067270754        9.0644538958       31.7421090597
  C         5.7631356504        7.4630398286       30.3768880111
  H        -6.6638623511       11.4675587147       24.6462550807
  H        -7.5717461371       11.5598505402       26.3035750277
  C        -8.4981053331       10.2778956707       24.6920697119
  H        -2.4819090734       17.1599572751       35.3261963808
  C        -3.2124610436       15.6648763928       36.4876431525
  H         5.2621608199        6.9294986497       11.0332964982
  H         4.4899564920        5.6048897889       11.7122103124
  C         3.0480341808        6.9168044966       10.7661865908
  H         5.6378250102        7.2165195774       29.3258588242
  H         4.8559111561        7.5089129739       30.9202359188
  C         6.6585154636        6.4325394540       31.0504806900
  H        -8.7743657354       10.9036993800       23.8367632168
  H        -8.1902042058        9.3686733211       24.2473595977
  C        -9.6244474152       10.0944552508       25.7011357483
  S        -3.6958481955       14.0341022510       36.9106873792
  C        -3.4515280842       16.7024013558       37.5731146974
  H         3.0967484030        7.8278029163       10.2251987205
  H         2.9034014471        6.0351870254       10.1208228167
  H         2.1664945698        7.0314336818       11.3625859402
  H         7.4360249906        5.9919257721       30.3646966779
  H         6.1197357917        5.6308204072       31.5370646250
  H         7.1672348349        6.9772960243       31.9193199566
  H       -10.5728658392        9.8306063249       25.2140201234
  H        -9.6499793083       10.9737148773       26.2992079556
  H        -9.4695839415        9.3339776640       26.4383815172
  C        -4.1798731384       14.7030159633       38.4282860953
  N        -3.9803461845       16.0690151618       38.6341011666
  O        -2.8986121863       17.8172614029       37.6265386110
  S        -4.7355364152       13.7404917869       39.8420989152
  C        -4.1333024329       16.7953454687       39.8560259605
  H        -4.4959674365       17.8015988627       39.6911226991
  H        -4.8122592448       16.3241501195       40.5647610298
  C        -2.8292675284       16.8605148522       40.5990940248
  H        -2.2496125383       15.9603948381       40.3977401920
  H        -2.2077275418       17.5765419976       40.1617924251
  H        -3.0755250444       16.9768965477       41.6573143561
