352
i=
  H         2.7954625235        2.9501499165       12.3296317690
  C         3.4735249233        2.1315034382       12.5976350147
  H         2.9820663006        1.2631979445       12.1937644085
  C         4.8290336852        2.2525838361       12.0191567689
  C         3.5141674268        2.0255992112       14.1459605316
  C         4.8712563365        2.6669591975       10.5288783846
  H         5.2476692181        1.2586917084       12.0780726181
  H         5.4639990367        3.0052219708       12.5271404431
  H         3.7523591252        2.9119087702       14.6740529074
  H         4.2602934048        1.3243138083       14.5186542644
  H         2.4489936005        1.7857481862       14.3876901636
  C         5.1372733803        1.4139620870        9.6882061236
  H         3.9849722917        3.1777186380       10.1718639033
  H         5.6680079912        3.3571190211       10.4270703368
  C         5.6543930162        1.6938007384        8.2801977709
  H         4.3043034194        0.6733286085        9.5263744238
  H         5.9969519088        1.0055630242       10.1658746265
  C         7.0099263590        2.3935405136        8.1726347429
  H         4.9338388390        2.3739673505        7.7898154257
  H         5.5774619223        0.7431003855        7.8021374063
  C         8.1935998183        1.5495650316        8.7993493497
  H         7.2647934439        2.4530613921        7.1466356606
  H         6.8018783489        3.3882917651        8.5249914360
  C         9.4981965718        2.3956107186        9.0945807947
  H         8.4371333058        0.7207711083        8.1615858892
  H         7.8801124150        1.1855995425        9.7418495075
  C         9.0833374591        3.7219387776        9.8113356982
  C        10.0083020989        3.0720105386        7.8917421545
  C        10.5904646868        1.6598147100        9.8845347966
  C         9.5433050851        4.8338203254        9.0931703024
  C         8.4537737661        4.0974957843       11.0411983113
  C         9.9720043162        4.4216738942        7.8197741209
  C        10.3637951634        2.4548403238        6.6990651585
  H        10.0966368340        1.3429010422       10.7736380258
  H        10.8463365587        0.7648359073        9.3189975795
  C        11.8969951436        2.3901638860       10.2634857085
  S         9.2465744829        6.3122490939        9.9013307228
  C         8.5571760043        5.4566905327       11.2540907322
  H         8.1116148115        3.3451840655       11.7190502420
  C        10.2937629962        5.1015909064        6.7118214682
  H        10.4374381053        1.4273147929        6.7082854771
  C        10.6699029864        3.1245781598        5.5464612029
  H        11.5381288297        3.4426951107       10.5408278389
  H        12.5113292625        2.5775873120        9.3943717385
  C        12.6924714206        1.6662426480       11.3394039041
  C         8.2166889262        6.0580369983       12.5465030486
  C        10.6786394036        4.4631266951        5.4956681857
  H        10.2122552421        6.2074747904        6.7173199013
  C        11.0892367692        2.7826336047        4.3104158456
  H        13.7361158685        1.9476046104       11.2757572839
  H        12.6161954845        0.5990505445       11.3442476703
  C        12.1745636520        2.1257573526       12.7331757985
  C         8.1125127613        7.4403606970       12.7023544453
  C         7.7863636194        5.1997954679       13.7390569747
  C        11.0547048831        5.1905972831        4.2329495292
  C        11.3197643563        3.9117668322        3.4840897765
  S        11.3236719136        1.3022831500        3.4873336967
  H        12.4161359295        3.1623183071       12.9381442638
  H        11.0867052538        2.1215796015       12.7434434038
  C        12.7469933741        1.4121068674       13.9439841696
  N         8.3569005287        8.4415201054       11.7719812452
  C         7.8191523547        8.0303023456       13.9143730184
  C         7.5185911094        5.8231478686       15.0003832835
  H         7.9316671910        4.1762588037       13.7358522890
  C        12.3345070059        6.0813684308        4.3385970874
  C         9.8666479523        5.9466376002        3.7050411971
  C        11.6844828775        3.5293687069        2.1749377232
  C        11.7688951968        2.1304517076        2.0738224831
  H        13.7711021593        1.5739573471       13.9548542823
  H        12.7408341861        0.2780486039       13.9486178266
  C        12.3120482344        2.0998866164       15.2099520829
  S         8.2206730820        9.9334042602       12.4777806110
  N         7.9242646157        9.4450810413       13.9056094983
  C         7.5096520202        7.2988996303       15.0757250401
  H         7.1415718121        5.2499526841       15.8188187021
  H        12.2894757048        6.8755874147        5.1425437326
  H        12.5139196419        6.5223983452        3.3922452870
  C        13.5892883069        5.2831205973        4.7539229114
  H         9.5171291099        6.4509506671        4.5894215954
  H        10.2012157766        6.6787999581        2.9375386010
  C         8.7043930518        5.0278337589        3.1092278986
  H        11.8326845266        4.3309473792        1.4993290442
  C        12.1571245789        1.3842389119        0.8760557423
  H        12.3461386282        3.1571349523       15.0041017065
  H        11.3338997284        1.8161797336       15.6876325889
  C        13.3199086201        1.8553172910       16.2954036298
  C         7.2556389466        8.0839196106       16.2109512962
  H        13.3838466010        4.5233764473        5.4604973141
  H        14.0621853719        4.7919833024        3.8833363416
  C        14.7974537836        6.0461971351        5.3537723458
  H         8.4412140243        4.4381851190        3.9968183131
  H         8.9208555228        4.3531332809        2.2597953159
  C         7.5412993766        5.8839247742        2.7243407030
  C        12.0712908725        0.0093407028        0.7112797913
  C        12.4215411469        2.1668325709       -0.3924729317
  H        14.3233654635        2.1133198512       16.0770728614
  H        13.2347686729        0.7885664427       16.5817351400
  C        13.0098376524        2.7294173929       17.5309287162
  H         7.2573344769        9.1414958606       16.1787950181
  C         6.9019276027        7.8161376581       17.5396033397
  H        14.5304474349        6.7944628623        6.1496678220
  H        15.2155517466        6.6958831471        4.5198124019
  C        15.8891039109        5.0609502303        5.7698457398
  H         7.0094069112        6.1087840960        3.6715223154
  H         7.9594159003        6.7543307412        2.2613496273
  C         6.4403073862        5.2472043970        1.8325894966
  N        11.5630421066       -0.8852304261        1.6366176765
  C        12.2768180548       -0.5843658710       -0.5337523688
  C        12.6967098140        1.5512520340       -1.5629745196
  H        12.4153895273        3.2181515487       -0.3570669230
  H        13.9372473297        3.0748375593       17.9398766733
  H        12.5074830148        2.1122321056       18.2970441457
  H        12.4996253781        3.6785088731       17.4110923647
  S         6.5170090297        6.2450328586       18.1371776275
  C         6.8464742424        8.8749470273       18.4938546443
  H        15.3982229137        4.5096081061        6.5799019143
  H        15.9533304445        4.2205369278        5.0496756986
  C        17.2098948034        5.7303990053        6.2604479840
  H         6.3429933587        4.1889558316        2.0632832412
  H         6.7384976253        5.3895523434        0.8458122322
  C         5.1243738383        6.0282869420        1.9974031197
  S        11.6753383483       -2.3655373543        0.9660227451
  N        12.2689892277       -1.9438006172       -0.4706578001
  C        12.5632650996        0.0943504172       -1.7345669027
  H        12.9929986928        2.1488503915       -2.4046863523
  C         6.2988932029        7.0283188011       19.7300275212
  N         6.4179835711        8.3905454314       19.6560505188
  O         6.9543719702       10.0500328023       18.1534546538
  H        17.7016662933        6.3811524505        5.5277035274
  H        16.9032025728        6.3224807184        7.1326590226
  C        18.2657992801        4.7555525444        6.7512341422
  H         4.4545939498        5.4665314716        1.3788840504
  H         4.7533080929        6.0752618661        3.0075395124
  C         5.2104396475        7.4786093392        1.5056059910
  C        12.9872094156       -0.6497222129       -2.8672524531
  S         5.7441319547        6.1946830697       21.1623808099
  C         6.3058558429        9.2128789460       20.8808261105
  H        17.7054729188        4.0599934494        7.3750711520
  H        18.7062034403        4.1864641200        5.8908662463
  C        19.3605898423        5.5624354550        7.5118517068
  H         5.4293422761        7.4730071158        0.4210526514
  H         6.1068481392        8.0367100267        1.8675269204
  C         3.9372823220        8.1686997585        1.9788508391
  H        12.6413207682       -1.6499927377       -2.8497576924
  C        13.6377569904       -0.3467623284       -4.0156222447
  H         5.5117860880        8.9660190108       21.5762412721
  H         6.0476580807       10.2847107780       20.6159858528
  C         7.6159368686        9.1030293128       21.6746275901
  H        19.7420513968        5.1638231172        8.4636598640
  H        19.0670828710        6.5665824517        7.7707916157
  C        20.4585699634        5.9193472149        6.6854051048
  H         3.5054513921        8.7363528006        1.1097827008
  H         3.2600216110        7.3868574169        2.3027183911
  C         4.2758627913        9.2235630289        2.9968053282
  S        14.1883668512        1.1946599394       -4.5246392063
  C        13.7031925694       -1.3785519449       -5.0799049056
  H         7.6747930569       10.0691964178       22.1032883681
  H         8.4615105121        8.9366081120       21.0738743606
  H         7.4653395203        8.3459593482       22.4945666522
  H        20.8526412423        5.1185160880        6.1229791462
  H        20.2412273787        6.7576356159        6.0429888817
  H        21.2794170502        6.2542309251        7.4153806279
  H         4.9643774139        9.9109501915        2.6508876945
  H         3.3741983081        9.6869865766        3.4395436032
  H         4.6244218778        8.8453836200        3.9291620991
  C        14.7063523495        0.4875118117       -6.0528172455
  N        14.2801110156       -0.8025284008       -6.1894902422
  O        13.3794736765       -2.5597518693       -4.9584454594
  S        15.1904519908        1.4887943358       -7.4242590371
  C        14.4174268438       -1.5811045614       -7.4668011138
  H        14.6303348617       -2.7047954755       -7.2569169669
  H        15.2759980551       -1.2231062400       -8.0488017874
  C        13.0650448562       -1.3494838271       -8.2466998742
  H        12.1658694227       -1.6014229437       -7.6556100793
  H        13.0871497812       -2.0603256387       -9.0502599532
  H        12.9976192232       -0.3303207441       -8.5738416332
  H        -3.9361498150       13.9613822475       15.9327802061
  C        -3.4398651043       12.9681539492       15.9957537038
  H        -4.2747238733       12.2409706862       16.1616715094
  C        -2.3041601640       13.1248564203       17.0371380468
  C        -2.7860485852       12.7021142257       14.6282276541
  C        -2.6663014185       13.4385602795       18.5216911191
  H        -1.7152004880       12.2533389961       17.0015544030
  H        -1.5140436772       13.8145305215       16.6670749096
  H        -3.0378833033       13.4841094824       13.8879583444
  H        -1.6830164730       12.5048058165       14.5114282980
  H        -3.2468383924       11.7251796431       14.3229552085
  C        -1.5541139261       13.0670458680       19.5479083355
  H        -3.6011201097       12.8337558530       18.6846541035
  H        -2.9353124114       14.4491101343       18.7293090914
  C        -2.2049007295       13.0935120065       20.9002102920
  H        -1.2891624946       12.0190447209       19.2240745108
  H        -0.7044655966       13.6234599934       19.3566219660
  C        -1.2482278291       12.4962745925       21.9388291223
  H        -3.0930699611       12.5199164897       20.9357320059
  H        -2.5424451635       14.1021374453       21.2491759932
  C        -0.1766012183       13.4932966278       22.3476902756
  H        -1.7116467540       12.0770269043       22.8366739773
  H        -0.6934190105       11.6227485702       21.5597247134
  C         1.1981426772       12.9078933865       22.9702434356
  H         0.1553951202       14.0339097036       21.4848424754
  H        -0.5700240729       14.1640986034       23.0756340432
  C         1.7320487345       11.6511459330       22.3106431749
  C         0.9347793266       12.2189029732       24.3163153852
  C         2.4262717610       13.8842388723       23.1424460722
  C         1.8057975770       10.6028973102       23.2055595098
  C         2.0850200716       11.2539398955       21.0152474898
  C         1.2900990635       10.9405127692       24.4768429042
  C         0.3618342612       12.7563364175       25.4379117059
  H         2.7171740775       14.4473907418       22.3266972508
  H         2.0258280514       14.6725823219       23.7577094335
  C         3.6755003560       13.3233896914       23.8457575595
  S         2.3342659556        9.1369722793       22.4813677960
  C         2.4545452553        9.9478428308       20.9487988050
  H         2.0504249278       11.8926497374       20.1758076719
  C         1.0016352555       10.2957675121       25.6666822569
  H         0.0582429349       13.7834972918       25.4794300650
  C         0.1248225141       12.1439881623       26.6306318054
  H         4.3079133429       12.7077507387       23.1619611879
  H         3.3923861654       12.7254370978       24.7082853786
  C         4.6726050535       14.3980749501       24.3208448614
  C         2.9138832097        9.2768475094       19.6694926619
  C         0.3624521202       10.8359566457       26.8141360717
  H         1.3707360015        9.2749091341       25.7008370351
  C        -0.2822595181       12.5552460307       27.8683635025
  H         5.3134813917       14.0714743955       25.1124725350
  H         4.1759742624       15.2632077077       24.7968351674
  C         5.4378215485       14.8664505653       23.1352469227
  C         2.8967173248        7.9069962265       19.4573560297
  C         3.3277578838       10.1078335305       18.4746920703
  C        -0.0134591307       10.0997389630       28.0668470514
  C        -0.3781524863       11.4788857533       28.6883063481
  S        -0.4644432547       14.0955933255       28.5219319279
  H         5.8491477861       15.8296450233       23.5790384632
  H         4.8406682924       15.0647574793       22.2503600594
  C         6.5735233561       14.1148117535       22.6620733077
  N         2.6374075329        6.9766912631       20.4753812310
  C         3.1544102904        7.2531236648       18.2484309915
  C         3.6593824338        9.4860691257       17.2788543298
  H         3.4133739107       11.1200812929       18.5786165946
  C         1.1021136307        9.3451363926       28.8244826499
  C        -1.2461838275        9.1321541498       27.8352572755
  C        -0.8793489235       11.9671112031       29.8842857640
  C        -0.9299881083       13.3279136989       30.0187383518
  H         7.2204781969       14.9499191924       22.4867004208
  H         7.0126709897       13.4650408482       23.3495280787
  C         6.2934790539       13.3666742338       21.3189822918
  S         2.7810642675        5.4643789536       19.8688863380
  N         3.1355647141        5.8426285933       18.3227531172
  C         3.6082037691        8.0189470953       17.1669009077
  H         4.0572592912       10.1002802226       16.5003409041
  H         1.3936595351        8.4892984135       28.2277715183
  H         0.6661884387        8.9017965356       29.6765423738
  C         2.3737837325       10.2437609301       29.0987918303
  H        -1.0151552926        8.3617153094       27.1259746305
  H        -1.4183546465        8.6383915893       28.8143909487
  C        -2.4195882014        9.8103292757       27.3063938953
  H        -1.1865699635       11.2554545088       30.6774109063
  C        -1.3740072278       14.0823800559       31.1996150259
  H         5.4090356214       13.6956423508       20.8211294564
  H         6.1619729671       12.3931462311       21.5815850783
  C         7.5754160409       13.4086079162       20.4518635240
  C         3.9773174209        7.2859093417       15.9191147105
  H         2.8341329274       10.5841678978       28.1464724998
  H         2.1344627970       11.1906942480       29.6096576833
  C         3.4540633884        9.4104872542       29.8024623138
  H        -2.2915387036        9.9337279611       26.2313452048
  H        -2.6489306586       10.8484448265       27.7595980224
  C        -3.6929727532        9.0250851783       27.5486374929
  C        -1.3702669741       15.5312129429       31.3342796402
  C        -1.6911298895       13.3897315722       32.4798104565
  H         8.1508304410       14.3120134382       20.4959085323
  H         8.2032179594       12.5945695389       20.6618724037
  C         7.0628024756       13.3144671841       19.0355456521
  H         3.9550468047        6.2727247283       16.1078078021
  C         4.2464838080        7.7839674833       14.6090065212
  H         3.9283655232        8.7731767225       29.0946057514
  H         2.8984021281        8.6414576341       30.4440569177
  C         4.5287329858       10.1944124542       30.5152372387
  H        -3.7524562827        8.1717625134       26.8655014075
  H        -3.6474632469        8.6098501872       28.5972716808
  C        -4.9898765847        9.7933188290       27.3199891259
  N        -1.1640591565       16.4438826214       30.3283560455
  C        -1.7474697391       16.2090083958       32.4840244936
  C        -1.8575638356       14.0735540693       33.7110808754
  H        -1.8490180376       12.3780656042       32.4062264460
  H         7.6311222604       12.6404976089       18.4851591834
  H         6.0915051939       12.8449807395       18.9517562135
  H         6.9837245964       14.2841793996       18.5377624618
  S         4.4991668205        9.3992689640       14.0418762748
  C         4.4620460459        6.7781005745       13.5595676387
  H         4.6690216822       11.1348584087       29.9125441115
  H         4.0808756510       10.5843191727       31.4628635978
  C         5.8882895144        9.5287600905       30.7794355940
  H        -4.9927018191       10.5718138911       28.0389345474
  H        -5.8181498089        9.1028933243       27.4413209055
  C        -5.0739967122       10.3537938992       25.9182828445
  S        -1.3141723627       17.9522264043       30.8536992627
  N        -1.7066292387       17.6260720511       32.3387466877
  C        -1.9135879955       15.5436538980       33.7384399038
  H        -2.0374378689       13.4994446304       34.6178739900
  C         4.8090366396        8.7260287722       12.4347681721
  N         4.7622536458        7.3625140566       12.4345452139
  O         4.1562709066        5.5707930897       13.6798211551
  H         6.4116996917       10.1404815967       31.4799341127
  H         6.4595554243        9.5409154946       29.8796931899
  C         5.7762682813        8.0388219519       31.2188706572
  H        -4.4531716180       11.2572011665       25.7593535282
  H        -4.8364237664        9.5038068125       25.1981023258
  C        -6.4363707796       10.8008558299       25.6744198594
  C        -2.1454528776       16.1897837040       34.9345324687
  S         5.2838469608        9.7032551205       11.1459136603
  C         4.8311417658        6.5553411861       11.2498832401
  H         5.2192056024        7.9666620198       32.1731739390
  H         5.2077402832        7.4900932139       30.4819068230
  C         7.1679562391        7.3710696257       31.3742309769
  H        -6.4789434364       11.5668370604       24.8737141188
  H        -6.7967744738       11.3382327816       26.5088995849
  C        -7.3205886773        9.6281746982       25.2299579851
  H        -1.9905096602       17.2756501243       34.8224947042
  C        -2.5679340109       15.9446107642       36.2276188421
  H         5.5141143008        7.0178380804       10.4514722884
  H         5.1472375603        5.5002079840       11.4574953333
  C         3.4453623936        6.3871536232       10.6890732592
  H         7.8507826116        7.9803476522       31.9264917039
  H         7.7211195018        7.2394707311       30.4463656843
  C         7.1067128641        6.0153636496       32.1044832238
  H        -7.0086186527        9.2862388384       24.2522638875
  H        -7.2296176958        8.7811327166       25.8295217209
  C        -8.7636035986       10.0595137522       25.2668538986
  S        -3.1166646872       14.4221710079       36.8163152813
  C        -2.6970289342       17.0120546130       37.1898749873
  H         3.4181083235        5.4955206651       10.0706395819
  H         2.6664902895        6.1655486799       11.5070501276
  H         3.1059138760        7.2267458409       10.0803862036
  H         8.0354878675        5.5663548314       31.9049933854
  H         6.3420600809        5.3597608421       31.6158984266
  H         6.8708679381        5.9719227451       33.1613342693
  H        -8.8144795407       11.1369183152       25.1995541299
  H        -9.3206543995        9.9306720321       26.2185877389
  H        -9.2476547548        9.6362863766       24.4096024606
  C        -3.2438022611       15.2165105391       38.3652762570
  N        -3.1773856588       16.5604479346       38.3578491276
  O        -2.3738946088       18.1854888905       37.0301370689
  S        -3.8169353985       14.3693659049       39.8231566193
  C        -3.2621383144       17.5346353548       39.4329000811
  H        -3.3972024480       18.5732094855       39.1285527643
  H        -4.2075503931       17.4170929422       39.8685763192
  C        -2.0967230429       17.4991912210       40.3625173513
  H        -1.2798884503       17.9911521432       39.8715943081
  H        -2.2911758580       17.8309831385       41.2953080955
  H        -1.8544340075       16.4568682928       40.5497100286
