352
i=
  H         4.7812704931        1.7118542098       12.7696772554
  C         4.0254019628        2.4929186934       12.8659080884
  H         4.6938835635        3.3643191590       12.8025346560
  C         2.9959751124        2.4120432162       11.7328408319
  C         3.3583748360        2.4891517658       14.2333204065
  C         3.6049850768        2.6586094975       10.3392439160
  H         2.2396298485        3.2087291569       11.7976375330
  H         2.4325571328        1.5547448770       11.7290612003
  H         2.4752313049        1.8127361649       14.3301447149
  H         3.1070867407        3.4987226611       14.4995741033
  H         4.0400554769        2.0664738769       15.0455304073
  C         4.2399647404        1.3784691038        9.7991935725
  H         2.9169337204        3.1418963883        9.6351029785
  H         4.4030833490        3.3311194304       10.4860391437
  C         4.8974220086        1.5332489191        8.4126532776
  H         3.5117241172        0.6189196972        9.6173305026
  H         4.9323516488        0.9968086778       10.5444461501
  C         6.1558020809        2.4585807155        8.4686965349
  H         4.2282731403        1.9809690963        7.7224111754
  H         5.2183322371        0.5343676776        8.0379424781
  C         7.3919165585        1.7730527023        9.0714523717
  H         6.2756995726        2.8605436545        7.4683429083
  H         6.0501630380        3.3636471306        9.0881480877
  C         8.5969062027        2.7592572749        9.3537643042
  H         7.6156421712        1.0346691273        8.3912339644
  H         7.0974877224        1.2959538779        9.9905041166
  C         8.2773575078        4.1009534343       10.0075315498
  C         9.1115368687        3.4599146419        8.0723825390
  C         9.7852579014        1.9479379549        9.9660698796
  C         8.6476621446        5.1682147830        9.1707190976
  C         7.6799368604        4.5711443516       11.2243931695
  C         9.1432673051        4.7918152527        7.9619319432
  C         9.6888599887        2.8675857648        7.0011436210
  H         9.5501112933        1.4714356776       10.9001974403
  H        10.0215755471        1.0606896230        9.3943963204
  C        11.0708221769        2.7975394363       10.1222521420
  S         8.4016306063        6.6400696072        9.9321470363
  C         7.6264519771        5.8779374331       11.3261712808
  H         7.2373038395        3.8601793415       11.9268670786
  C         9.6078415646        5.4319222185        6.8299683472
  H         9.7504586508        1.7661933364        7.0850971871
  C        10.1350807457        3.4246176285        5.8300134502
  H        10.8716783073        3.8757368544       10.1843104663
  H        11.6240817324        2.6574376406        9.1972760078
  C        11.9902073252        2.4386293633       11.2684109135
  C         7.2909736782        6.5257735561       12.6326932897
  C        10.1011802435        4.7688119324        5.7320035001
  H         9.6620675830        6.5060821103        6.6700767596
  C        10.5715930112        3.0022853935        4.5463526022
  H        12.6729226040        3.1946684807       11.3187443457
  H        12.5215539122        1.6067933013       10.9051901682
  C        11.3122812881        2.3081842697       12.5914501891
  C         7.4522593343        7.8974167332       12.9251222328
  C         6.7702082757        5.6962467332       13.8140916832
  C        10.4891573539        5.4320624782        4.4755152404
  C        10.8099865881        4.0795914632        3.7424123783
  S        10.8799322897        1.4792243981        3.7841538573
  H        10.4488205694        2.8942067823       12.5776789855
  H        11.0162825769        1.2716370482       12.7705160464
  C        12.1092425101        2.6439463881       13.7945007473
  N         7.8300126634        8.8191245692       11.9605982718
  C         7.3328005173        8.4850066626       14.1357873540
  C         6.4930645792        6.3521931849       15.0672602341
  H         6.3989630202        4.6247035910       13.7954828224
  C        11.7250309306        6.3642498782        4.6442983460
  C         9.3888812828        6.2729094235        3.7941017795
  C        11.1748027899        3.6507458974        2.4435816677
  C        11.1801340490        2.2602628156        2.2951567641
  H        11.3475109959        3.1658643520       14.4340217760
  H        12.8918216820        3.3218924807       13.4728690252
  C        12.6732643910        1.3716469062       14.4596826343
  S         8.0998448358       10.2514293915       12.6141253219
  N         7.6076794734        9.7926818658       14.1377835625
  C         6.8820165537        7.7713548662       15.3055384657
  H         6.0230709581        5.8401643157       15.8468061322
  H        11.4413541900        6.9806314465        5.4799224184
  H        11.8135807061        6.9831840854        3.7246239912
  C        12.9536454267        5.6008858578        4.9744612387
  H         9.2798181078        7.2005653326        4.3031781553
  H         9.8166128123        6.6210688265        2.8265491418
  C         7.9794615938        5.5921739828        3.5776607155
  H        11.3943218651        4.3872795821        1.6892457664
  C        11.6129352312        1.5126961314        1.0678012213
  H        11.8707843424        0.8338212764       14.9027382672
  H        13.2247992691        0.6767578453       13.7981142582
  C        13.6910033794        1.6762682925       15.5617506401
  C         6.6527352710        8.5389713289       16.4982826248
  H        12.9466639190        4.9194003959        5.8603252728
  H        13.2005952728        4.9394764377        4.1297501718
  C        14.1013743630        6.4441001229        5.2625277810
  H         7.5607951416        5.2598245629        4.5189892183
  H         8.1239550899        4.6634502213        3.0907787053
  C         7.0207634329        6.3211606245        2.7984321378
  C        11.6111095139        0.1145030429        0.9713895405
  C        11.8934204611        2.2988171936       -0.1817572085
  H        14.3011706648        2.5148331975       15.1683726509
  H        14.3289927744        0.8347118412       15.6902193082
  C        12.9644059846        2.1611004652       16.8459258980
  H         6.9654943124        9.5497341043       16.3533176341
  C         6.2672960557        8.2193409328       17.7734151689
  H        13.8230017724        6.9603235245        6.1851209202
  H        14.2454752989        7.2778668721        4.4678399728
  C        15.4074258474        5.5914601109        5.3287143244
  H         6.7821670750        7.3326303493        3.1349759826
  H         7.5157984692        6.4185128694        1.8227610961
  C         5.6768013869        5.5130883668        2.4957970468
  N        11.4296407719       -0.7982293348        2.0001862922
  C        11.9986901878       -0.4816853314       -0.2011673772
  C        12.2626105322        1.6632432584       -1.3706635032
  H        11.7727259745        3.3523811393       -0.2219905700
  H        13.6082089792        2.1273763023       17.7516917178
  H        12.0548314027        1.6416962442       16.9995391390
  H        12.6939117965        3.2185444420       16.7038445075
  S         5.9694566874        6.6319416997       18.4337894024
  C         6.1885403724        9.3053532918       18.8060307118
  H        15.2235891893        4.5846993156        4.9449422581
  H        16.1681048355        6.0489601356        4.6733210280
  C        15.9465362836        5.5086441618        6.7526703479
  H         5.1494010261        5.2814801754        3.4404638093
  H         5.8714067683        4.5462229586        1.9840868606
  C         4.6778276282        6.2370388173        1.6041787702
  S        11.5862157327       -2.3028786627        1.3649018406
  N        12.0106260904       -1.9027648109       -0.1030287842
  C        12.2909219581        0.1806568983       -1.4548183989
  H        12.7164357675        2.2116222735       -2.1781887727
  C         5.9622518510        7.3486851822       20.1060995714
  N         6.0783213315        8.7020173159       20.0391516741
  O         6.4077254388       10.4875133119       18.5821465571
  H        16.0131224722        6.4941037478        7.1700246616
  H        15.2920543291        4.9495044969        7.3234155806
  C        17.3040912279        4.9304058966        6.6871043081
  H         5.1312071624        6.6058345685        0.7535273295
  H         3.9899057719        5.5876968537        1.1286465149
  C         3.9178833123        7.2289713833        2.3001640848
  C        12.7411913535       -0.5630879646       -2.5274425802
  S         5.7062751961        6.5231379314       21.5975988484
  C         6.0634749821        9.3920869818       21.2879729432
  H        17.4970528651        4.4749070234        7.6613100887
  H        17.2973513287        4.3003722531        5.8432899473
  C        18.4204103911        6.0091547542        6.7917214600
  H         4.2899472874        7.3257853460        3.3201044984
  H         2.8912073858        6.8524425661        2.4297060827
  C         3.6803031224        8.4374356784        1.3879313767
  H        12.3241521015       -1.5555036791       -2.7031364852
  C        13.2555752258       -0.2855951779       -3.7898862283
  H         5.3925848129        9.0588142999       22.0799265141
  H         5.6065929745       10.3062076664       21.1922920101
  C         7.5701498449        9.5353606236       21.6891887645
  H        18.8954095343        5.9994767610        7.8001385361
  H        17.9439812174        6.9506479368        6.7167442504
  C        19.6128041570        5.8865307536        5.8358880250
  H         3.4282273901        8.0866498389        0.3709684829
  H         2.7778582046        9.0833616318        1.6008870081
  C         4.8373965317        9.4907543079        1.3312209237
  S        13.8496264600        1.2516132314       -4.3263287152
  C        13.4335451258       -1.4384939896       -4.7591001152
  H         7.5701087399        9.7815708517       22.7848177680
  H         8.0807908709       10.3191780713       21.0989743761
  H         8.0220559717        8.5586887426       21.6552889388
  H        20.4356845570        6.6179246339        6.0685175164
  H        19.9830182754        4.8754152251        5.8443604896
  H        19.3334400670        6.0792497897        4.7953290961
  H         4.3801683323       10.4876843506        1.3653816304
  H         5.5394089073        9.4277257444        2.1839594880
  H         5.3278224781        9.2973641775        0.3687418378
  C        14.1332936753        0.4379735801       -5.8571024825
  N        14.0462710049       -0.9162024673       -5.8643396826
  O        13.1459122016       -2.5579974584       -4.5532146198
  S        14.7794932067        1.2494629126       -7.3338121268
  C        14.4395610666       -1.6760710391       -7.0382120638
  H        14.7331246799       -2.6791570375       -6.8026179705
  H        15.3820099225       -1.3694729164       -7.4754337578
  C        13.3552143467       -1.6230909980       -8.0812710988
  H        13.8002825894       -1.6016260305       -9.0658069876
  H        12.5991129838       -0.8104633481       -7.8276828681
  H        12.8751431280       -2.6261192805       -7.9840551324
  H        -4.0514268390       14.8146990934       16.3599926027
  C        -3.6180397209       13.7629655938       16.3872048093
  H        -4.3338358587       12.9211283711       16.5555375972
  C        -2.5143355504       13.6257037088       17.3907923970
  C        -2.9649336867       13.3277428830       15.0657934121
  C        -3.0723449053       13.9662331365       18.7919434208
  H        -2.1896160429       12.5180725556       17.3600926739
  H        -1.5792035123       14.2029360992       17.2099520755
  H        -3.2858117758       13.9494552622       14.3034023563
  H        -1.9795229339       13.7512797232       14.9667400491
  H        -3.0460489541       12.2613594904       14.7539457035
  C        -1.9033865338       14.0617761205       19.7826054971
  H        -3.6177772576       13.0241913825       18.9932722900
  H        -3.5961662520       14.9015332352       18.8324228930
  C        -2.4415580550       13.7749806100       21.2447482757
  H        -1.1337116269       13.3330347686       19.5343429426
  H        -1.4319539476       15.0707271192       19.7438877789
  C        -1.2074824156       13.1617694856       22.0672390983
  H        -3.2594353361       13.0255079057       21.1131952163
  H        -2.8798347477       14.5915011141       21.8114973565
  C        -0.0775190788       14.0400185002       22.5915757515
  H        -1.7012058550       12.6862254831       22.9042232980
  H        -0.9089187121       12.3583143732       21.5051812500
  C         1.0839139611       13.2916099080       23.3946104451
  H         0.3772989692       14.7269202670       21.8131857867
  H        -0.4818549428       14.8171363077       23.2487737570
  C         1.4434616049       12.0207529966       22.6548876477
  C         0.5509967853       12.6031928135       24.5701266904
  C         2.2860948189       14.1289775548       23.7922763393
  C         1.2135569700       10.9007498073       23.4107782330
  C         1.6486163892       11.6694739763       21.3048874893
  C         0.6655308363       11.2492418008       24.6340989099
  C         0.0933386909       13.2194073549       25.7783088096
  H         2.3974449223       14.7573383714       22.9624687927
  H         2.0603215161       14.8771542541       24.5375007751
  C         3.6380928512       13.4198272681       23.9972415691
  S         1.6857194673        9.4821850067       22.6572988106
  C         1.8766804452       10.3366302237       21.2256380669
  H         1.7286292141       12.4634531880       20.6617012570
  C         0.2830672294       10.6318625246       25.8107211775
  H        -0.0425997737       14.2771367551       25.9167667848
  C        -0.3464476544       12.5291827537       26.8279397270
  H         3.8817218312       12.6469846378       23.2855433511
  H         3.4282891615       12.9983441122       24.9701628500
  C         4.9426313401       14.2772904217       24.1589577893
  C         2.3189033861        9.6145458959       19.9558213570
  C        -0.2146774712       11.1798125373       26.9801205702
  H         0.2289547269        9.5319452322       25.8606181316
  C        -0.8052730985       12.9169490821       28.0956575763
  H         5.6957329277       13.8017837309       24.7785692868
  H         4.7056309636       15.1926660471       24.6101565345
  C         5.5529280338       14.4960577643       22.7894985261
  C         2.3342025707        8.2074796348       19.6947841371
  C         2.7482099951       10.4102455768       18.7159985882
  C        -0.6187831687       10.4820271311       28.2015296263
  C        -0.9071285254       11.8265864613       28.9159830742
  S        -1.0665578933       14.4167008891       28.8374501511
  H         6.3851972776       15.1760202786       22.9339189571
  H         4.9722452599       15.0218769477       22.0145219061
  C         6.1974457917       13.2460825960       22.0964221052
  N         2.0645835689        7.2774353740       20.6953859146
  C         2.6865207676        7.5533537440       18.5115851695
  C         3.0333864743        9.7571420896       17.5043916447
  H         2.8459572879       11.4845000734       18.7637244054
  C         0.5041900565        9.6808081496       28.8047862599
  C        -1.9183943038        9.6418013078       28.0612488168
  C        -1.3795434487       12.2206385480       30.1744670592
  C        -1.4963574459       13.5821353669       30.3226086057
  H         7.2349782009       13.3206463729       22.2971517316
  H         5.8887688592       12.3442017944       22.5481789817
  C         6.0387008697       13.2082355111       20.6060460473
  S         2.3196845026        5.7602466840       20.1519205409
  N         2.6907751592        6.1361420206       18.6413415092
  C         3.0193789238        8.2849135006       17.3333928569
  H         3.2814047843       10.3649119789       16.6056541008
  H         0.7892145112        8.9474629650       27.9794007211
  H         0.3258954303        9.1184614673       29.6989277107
  C         1.8588383109       10.4319957153       28.9791598514
  H        -1.8785343457        9.0602542251       27.1413322113
  H        -1.9944653290        9.0118894242       28.9812248256
  C        -3.2077008792       10.3857389069       27.9749842747
  H        -1.4307051094       11.5906010693       31.0133172554
  C        -1.7660515895       14.3458737793       31.6257627751
  H         5.0711909815       13.6266863682       20.2533122038
  H         5.8507176585       12.1360927544       20.5753944393
  C         7.1665579966       13.6693263211       19.6632554586
  C         3.2481735157        7.5666982379       16.1298368464
  H         2.2065475958       10.8117981923       28.0765099853
  H         1.8092166969       11.2297214008       29.6906053863
  C         2.9166523425        9.4710084328       29.6140247969
  H        -3.0040731661       11.2343161491       27.3473184232
  H        -3.4826438797       10.6872562732       28.9975786458
  C        -4.3429433188        9.5079925383       27.3789646439
  C        -1.8815434384       15.7838896104       31.8435491362
  C        -1.8633910116       13.5195983850       32.8567748641
  H         7.7757036400       14.4389311473       20.1232122193
  H         7.9053268379       12.8941686868       19.4540532272
  C         6.6438138854       14.1553285263       18.3288979958
  H         2.9733906827        6.5487261579       16.2114844871
  C         3.5584949201        7.9578885812       14.8564870693
  H         3.3004972028        8.8196386883       28.8619835893
  H         2.5566731448        8.8299192613       30.3578152413
  C         4.2358342181       10.0722724258       30.3043229169
  H        -4.0968614727        8.9856101750       26.4820980328
  H        -4.7849165015        8.7328498066       28.0365414465
  C        -5.4791593010       10.4126311366       26.9736928844
  N        -1.6646224484       16.6522514302       30.8526090182
  C        -2.1771084505       16.3329096248       33.0843977132
  C        -2.0891463383       14.1140498451       34.1276735988
  H        -2.0255025848       12.4005974184       32.7969392312
  H         7.4224939616       14.5299001671       17.6135977529
  H         6.2558525718       13.2546607088       17.7253992757
  H         5.9418040287       14.9649180863       18.4001465409
  S         4.0737993871        9.5036440621       14.2990661001
  C         3.4352482303        6.9048150728       13.7992024282
  H         4.5582209863       11.0332456858       29.9219805657
  H         4.0480081935       10.4501090750       31.3088465525
  C         5.4427079567        9.1301728155       30.3680181235
  H        -5.0059106117       11.1248021584       26.2671395163
  H        -5.8074876329       10.9850840830       27.7653835131
  C        -6.5248555187        9.6943636417       26.1783320312
  S        -1.8036816086       18.1600411067       31.5023793955
  N        -2.1791680644       17.7209764383       33.0430957301
  C        -2.2611801713       15.5723833024       34.2790147750
  H        -2.2969728123       13.4291876752       34.8878717343
  C         4.3088690926        8.7615902100       12.6665296635
  N         3.9397949760        7.4570540770       12.6711899589
  O         2.9289308784        5.7793368325       13.9932795655
  H         6.2093046679        9.9007077020       30.2889406733
  H         5.6639876591        8.5372829100       29.4468366278
  C         5.4425312738        8.2325307565       31.5628366612
  H        -6.0948590766        9.1554998642       25.3318345580
  H        -6.9006017315        9.0161620315       26.9408793503
  C        -7.4992716995       10.7587432233       25.5736882896
  C        -2.6145894330       16.2283902106       35.4594176278
  S         4.6110696122        9.6138586517       11.2346264671
  C         4.0533811361        6.6497943348       11.4386703253
  H         5.8413813988        8.7706168211       32.3928224727
  H         4.4395391733        7.9783583974       31.8791164917
  C         6.2169638151        6.9192657582       31.4432317453
  H        -6.9071973596       11.3435772768       24.7436969528
  H        -7.8538648695       11.5319561419       26.2198350107
  C        -8.7674516595       10.1392752624       24.8759619815
  H        -2.3121956512       17.2252781165       35.4090186978
  C        -3.1857479873       15.8758036988       36.6561240019
  H         4.8774274244        7.0652041717       10.9272733814
  H         4.2169048744        5.6165278640       11.7328590467
  C         2.7346683651        6.7364008445       10.7072784243
  H         6.4400332224        6.5629592942       32.4363818025
  H         7.1946224087        7.2910098534       31.0969160620
  C         5.5496661620        5.9716818664       30.5502975616
  H        -9.0553150777       10.6379582005       23.9031941775
  H        -8.4999101152        9.0659237861       24.6654705330
  C        -9.8876675171        9.9786874571       25.9074115222
  S        -3.8661856127       14.3788604803       37.2287445068
  C        -3.2918488938       17.0212110874       37.6221924309
  H         2.5074631968        7.6385139919       10.2092367895
  H         2.6781187315        5.9262934411       10.0212784727
  H         1.9463581927        6.6488659814       11.4738470903
  H         5.7092003436        6.2728479433       29.4798042220
  H         4.4571947361        5.8632632522       30.6117275839
  H         6.0468156697        4.9490952818       30.6579827541
  H        -9.3270562972        9.3974184693       26.6886385558
  H       -10.6932102063        9.3409378396       25.5586569719
  H       -10.2235854368       11.0108764517       26.2072085269
  C        -4.0135347663       15.1707423230       38.7348711815
  N        -3.7302058217       16.4551497469       38.7784892096
  O        -2.7564939108       18.0991909432       37.4589821088
  S        -4.8531024371       14.4168970488       40.1203286753
  C        -3.7760235228       17.2349882001       39.9730066139
  H        -3.8908348710       18.2276719558       39.6866097808
  H        -4.5937347594       17.0646060829       40.6672835740
  C        -2.4127423970       17.1255502067       40.6313021096
  H        -1.9807251345       18.1135572038       40.9305640505
  H        -2.4964500823       16.5067212911       41.5758849752
  H        -1.6479875902       16.5709726464       39.9799360389
