352
i=
  H         2.6012054039        1.0578094424       13.0063415001
  C         3.2969680395        1.9124064553       12.9713235761
  H         4.2578409764        1.4935809274       12.8784330755
  C         3.0202595637        2.7692467431       11.7136485637
  C         3.2537099759        2.6876479547       14.2252442582
  C         4.2833004033        2.7597553726       10.7791049511
  H         2.7443327772        3.8408542676       12.0191143849
  H         2.2102880100        2.2774116913       11.1863453687
  H         2.7157739629        2.1523048829       15.0017541424
  H         2.7992738378        3.7300063215       14.0424756801
  H         4.2632109446        2.7952579030       14.6367187201
  C         4.6018933159        1.5461432054       10.0755132853
  H         3.9510279429        3.4970872715       10.0515773325
  H         5.0491067140        3.3351293942       11.2063188582
  C         5.2518129218        1.8335208559        8.7028795309
  H         3.6395284831        1.0169751798        9.8843438173
  H         5.2780819060        0.9658323958       10.6293512418
  C         6.5178581893        2.6152945967        8.7370436065
  H         4.4704359001        2.1737507146        7.9837983329
  H         5.5253032747        0.8397672828        8.3430033446
  C         7.8002590242        1.9102689025        9.2997750804
  H         6.7798179237        2.8115298325        7.7409698530
  H         6.4400925928        3.5796241631        9.3508641887
  C         9.0718930901        2.7551912912        9.4996340771
  H         8.0537693988        1.1356325492        8.6256351135
  H         7.5251290606        1.3783130970       10.1876152035
  C         8.8470548908        4.1425756386       10.1932721870
  C         9.4642362638        3.5088146385        8.2309630858
  C        10.1634469139        1.9349170863       10.2455856642
  C         8.9437322403        5.2302641928        9.3581355087
  C         8.3231771590        4.5309110895       11.4367768353
  C         9.3925268204        4.8530366086        8.1056133408
  C         9.9000337729        2.8808386949        7.0298393716
  H         9.8470405865        1.2534154036       11.0360780546
  H        10.6753313902        1.3462617547        9.3982479362
  C        11.1571886852        2.9046495596       10.8952050561
  S         8.4533410208        6.7225939339        9.9966163657
  C         8.1244375250        5.9031191773       11.4984025714
  H         8.1228540215        3.8161037898       12.2565734134
  C         9.8102529952        5.4570376169        6.9365620919
  H        10.0210456932        1.8246692683        7.0679015567
  C        10.3325440922        3.5004669659        5.8797181526
  H        10.6723578395        3.2635175257       11.8007044703
  H        11.4774002597        3.7934117343       10.3371246227
  C        12.3895583390        2.0662421957       11.3272981338
  C         7.6827244081        6.5795769250       12.7323845460
  C        10.3176624984        4.8481906340        5.7611597643
  H         9.8163205530        6.5245954340        6.9301404876
  C        10.7302005284        3.1268767891        4.6356008939
  H        13.2475866717        2.1854673167       10.7171840519
  H        12.2125964853        0.9677497763       11.0900525975
  C        12.5379302442        2.2765974572       12.8766472197
  C         7.7311500657        8.0334993138       12.9622012757
  C         7.1962079778        5.7805162426       13.8758743120
  C        10.7540160307        5.5553748199        4.4594098359
  C        10.9680353767        4.2071422586        3.7708554240
  S        11.0140556137        1.6187936915        3.9151187359
  H        13.4983056940        1.6825733755       13.0432355221
  H        12.7227638128        3.3382857932       13.0635399036
  C        11.4542876740        1.5994077474       13.7911699663
  N         8.0328000167        9.0325726587       12.0141407043
  C         7.5131627882        8.6140146949       14.1793820820
  C         6.9007929108        6.4353308769       15.0755625891
  H         6.9028807885        4.7049323178       13.8415290927
  C        12.1010916705        6.3935385882        4.5998359884
  C         9.5302391821        6.3358328670        3.8685165501
  C        11.3502058827        3.7682138314        2.4726573404
  C        11.2955063529        2.3828733472        2.4264179459
  H        11.1728200655        0.6570933904       13.3825697489
  H        10.5175629078        2.0114147533       13.6798124842
  C        11.6253208225        1.8517660558       15.2890829810
  S         8.2197172973       10.3895700662       12.7705020757
  N         7.7793260716        9.9487398088       14.2688079338
  C         7.1895714624        7.8952750868       15.3319692454
  H         6.5626273146        5.8383120409       15.8859082108
  H        11.9719253280        7.2353918751        5.2144423522
  H        12.3273227381        6.8989261877        3.7061672376
  C        13.3473304994        5.5405839976        4.8660792284
  H         8.9850279948        6.9053098967        4.6477820707
  H         9.9774992099        7.0890926924        3.2289558311
  C         8.5478343939        5.4709208512        3.0298495892
  H        11.5924578401        4.5254557102        1.8032181140
  C        11.6007049987        1.6157821249        1.1500183288
  H        11.0612814959        2.7578501203       15.6047715022
  H        11.0691047248        1.0714612706       15.7433678922
  C        13.1089773896        1.9764915537       15.8331433468
  C         6.9759819425        8.5486663877       16.5769124499
  H        13.1536914571        4.9439595638        5.7646958627
  H        13.5904999345        4.9047261153        3.9972532777
  C        14.5399362103        6.5115692022        5.2766050643
  H         8.2572710392        4.6546398197        3.6912566914
  H         9.0587715252        5.0337440390        2.1722120998
  C         7.4379629415        6.4356906196        2.4376970420
  C        11.6702289722        0.1985439567        1.0075752928
  C        11.7928708430        2.3557904610       -0.0924564364
  H        13.5836947129        2.8790165163       15.3027148874
  H        13.6714397173        1.0513520315       15.7508548420
  C        13.0766872803        2.3933559025       17.2851038922
  H         7.3019615448        9.5624520462       16.6758283961
  C         6.7323362374        8.0604893291       17.8440833019
  H        14.1808657710        7.0101960886        6.1739519733
  H        14.7113563522        7.0652105039        4.3343643134
  C        15.7759736056        5.7460791550        5.7113508334
  H         7.1567918427        7.0381175949        3.2759484204
  H         7.9495288270        7.0293673746        1.6503270401
  C         6.1837095799        5.7461264632        1.9171497998
  N        11.5325798319       -0.7441571708        2.0817028535
  C        12.0621369589       -0.4359489456       -0.1377358372
  C        12.1141922473        1.7013402551       -1.3082585153
  H        11.6079358486        3.4396343308       -0.1545392047
  H        13.4712045594        3.4130078629       17.4510642123
  H        13.6072498744        1.6262477248       17.7854777083
  H        12.0382605561        2.3532509327       17.6881559678
  S         6.2177932330        6.4553842239       18.3532060343
  C         6.6615774508        9.1275827926       18.9460920682
  H        15.6059995558        4.6566673863        5.7409834730
  H        16.4580001944        5.8405002528        4.8703403243
  C        16.4595967198        6.1725591543        6.9104661988
  H         5.6562983122        5.3793787442        2.7891594595
  H         6.2925742625        4.9031135189        1.2926938463
  C         5.3620653171        6.7713982447        1.1299411191
  S        11.8755362932       -2.2254314594        1.5495636063
  N        12.2545604091       -1.7801166916        0.0178587175
  C        12.2987661375        0.2613222710       -1.3599905164
  H        12.1843275702        2.2686486402       -2.2556393564
  C         6.0672506088        7.1055378950       19.9082293337
  N         6.2070616221        8.4631901239       20.0372082684
  O         6.9596967447       10.3472428875       18.8872139397
  H        16.6492168793        7.2530378895        6.9042495205
  H        15.8761736788        6.0063622498        7.8146080236
  C        17.8004214660        5.3919193988        7.1706151207
  H         6.0895762483        7.4017773852        0.6001998297
  H         4.8908006087        6.1165872801        0.3739303453
  C         4.2801922410        7.5488844879        1.7923214393
  C        12.6216300118       -0.4103319559       -2.5595278575
  S         5.3240132193        6.2476315354       21.3106504244
  C         6.2525191528        9.1451882435       21.3144860670
  H        18.2240280527        5.7357037949        8.1310551717
  H        17.5904043154        4.3177100532        7.1435968500
  C        18.9405956326        5.6478969069        6.1488592370
  H         4.0829239235        7.2532578706        2.8312373417
  H         3.3575430330        7.2542573508        1.3131709354
  C         4.4868293700        9.0821563121        1.7437897766
  H        12.4118048247       -1.4752423862       -2.5725021942
  C        13.1392458502       -0.0618494488       -3.7706575391
  H         5.5379011376        8.7620390967       21.9546741412
  H         5.8053026190       10.1431857221       21.1420951451
  C         7.7288263022        9.2201958792       21.8804510517
  H        18.8963503183        6.5740167866        5.7368221146
  H        18.9251316929        4.9527827280        5.3643987678
  C        20.2917627029        5.7185575138        6.7911161046
  H         4.3595275928        9.4528778550        2.7549024123
  H         5.4924252612        9.3448132948        1.4456344441
  C         3.4551237999        9.7131116552        0.8457574952
  S        13.7983391470        1.4399375880       -4.2781084534
  C        13.2100740333       -1.1627898142       -4.7960387350
  H         7.9876732260        8.4432643930       22.6274961161
  H         7.9286757876       10.2679781176       22.1891849712
  H         8.4264122453        9.0223851426       21.0697204816
  H        20.7999802641        4.8179714624        6.6344918949
  H        21.0411740347        6.4201778923        6.3465366438
  H        20.3273372634        5.8516781181        7.8450265586
  H         2.5542788366        9.0816559725        1.0169258053
  H         3.1548468295       10.7772013998        1.0864286043
  H         3.7306630098        9.6518031556       -0.2090566955
  C        13.7672719214        0.7277529045       -5.9120220013
  N        13.8092286431       -0.6320521318       -5.8792011857
  O        12.9543072225       -2.3151634719       -4.5341732740
  S        14.5171485960        1.5112962491       -7.3058024622
  C        14.0251026225       -1.4911400629       -7.0314016249
  H        14.2773158524       -2.4815634353       -6.6480763187
  H        14.9384606041       -1.2332048572       -7.6558607477
  C        12.6814609521       -1.4306978730       -7.7393759336
  H        11.9093676012       -1.8459314413       -7.1754082216
  H        12.7000915971       -2.0794604923       -8.6509778011
  H        12.4179700613       -0.3792444750       -7.9321282151
  H        -2.9952719219       14.8738142355       16.3780118530
  C        -2.8205842044       13.8468788634       16.5594130782
  H        -3.7148190402       13.4291544871       17.0146261189
  C        -1.6714667209       13.5338104545       17.5382670824
  C        -2.7196359356       13.1846836084       15.2918816922
  C        -1.9673940801       14.0831105246       18.9578834616
  H        -1.7331874109       12.4634127002       17.7131895716
  H        -0.6484448136       13.6377520109       17.2347353437
  H        -2.2519673330       12.1977619068       15.2872845330
  H        -3.6853955581       13.1597053063       14.8545077319
  H        -2.1724621629       13.7440277636       14.5400097495
  C        -2.5722639623       12.9039658164       19.7708228421
  H        -2.5637304983       14.9389000701       19.0590012821
  H        -0.9723744648       14.3760898889       19.4129056056
  C        -2.5600740465       13.1658385943       21.2378247526
  H        -3.5717689866       12.6756992961       19.4858409915
  H        -1.9339931942       11.9787205771       19.6434092166
  C        -1.3768678205       12.6115078847       22.0208592722
  H        -3.4581383221       12.6336979454       21.5478810146
  H        -2.7995301992       14.2141535496       21.4327256071
  C        -0.2670725642       13.6533043205       22.3524179897
  H        -1.7144107265       11.9927672092       22.8755464920
  H        -0.9395941314       11.8130558158       21.4345541828
  C         0.8848963640       12.9554461417       23.1029697478
  H         0.1894678176       14.1387733956       21.4738967063
  H        -0.6949524447       14.4943688083       22.9074819586
  C         1.2766120735       11.5891428910       22.5340111417
  C         0.3766625929       12.2744569522       24.4195036984
  C         2.0559164819       13.9044883219       23.4943404147
  C         0.9637199254       10.5432734199       23.2354801805
  C         1.9109704302       11.2310085981       21.3005986515
  C         0.4103252522       10.9242116420       24.4524557552
  C        -0.0772939844       12.8389023471       25.6504482567
  H         2.3981004019       14.3597398197       22.5752416304
  H         1.6499974767       14.6385875196       24.1631598117
  C         3.2419931572       13.2308746254       24.1911348814
  S         1.4290992301        9.0821364350       22.6381397517
  C         2.0113184412        9.8989730124       21.2345014951
  H         2.0688924637       11.9740428395       20.5553868948
  C         0.0420533344       10.2864001536       25.5651008759
  H        -0.1093358382       13.8913654781       25.7218051246
  C        -0.4429637010       12.1663913724       26.7698448383
  H         3.6555014833       12.4501527827       23.4984623676
  H         2.9840464380       12.6953450391       25.0456881387
  C         4.2740363643       14.3124468323       24.5108666555
  C         2.5443805411        9.1745311283       20.0803558195
  C        -0.3931993643       10.7874776963       26.8045135317
  H         0.1839194994        9.2229766147       25.5986824624
  C        -0.8641863909       12.5065995843       28.0584400312
  H         4.8908674293       13.8568129913       25.2116343384
  H         3.8936277961       15.1989521258       25.0143121649
  C         5.1270302248       14.8743934490       23.3875289039
  C         2.4418016104        7.8023417061       19.7247683261
  C         3.1702323746       10.0120009885       19.0215397410
  C        -0.7664119211       10.0786295628       28.0096315130
  C        -0.9576453546       11.3458087791       28.8333691528
  S        -1.1075317656       13.9900202374       28.9403517140
  H         5.7847870854       15.6255083578       23.8716584461
  H         4.5048383676       15.4039286147       22.6793590195
  C         5.9191515239       13.8927110354       22.5627186696
  N         1.9785198800        6.7309085251       20.5430041585
  C         2.7929316334        7.3583213052       18.4597169904
  C         3.5013884007        9.5899336662       17.7427343512
  H         3.3397131232       11.0772742688       19.2688953420
  C         0.3077225726        9.1607787361       28.6048057920
  C        -2.1450836088        9.3974248437       27.9309759589
  C        -1.3359247273       11.7161210343       30.1932610989
  C        -1.3708634502       13.1237061829       30.3431583535
  H         6.9046770250       14.3094483520       22.5621617486
  H         5.8747648049       12.9089679524       23.0032094558
  C         5.4155942890       13.8832877248       21.1190895363
  S         1.9645021087        5.3889496420       19.6338500039
  N         2.4524412708        5.9984369140       18.2022910733
  C         3.2312319326        8.2146418165       17.3733755528
  H         3.9083191818       10.2146681086       16.9813550845
  H         0.6150890063        8.4677463825       27.8163035512
  H        -0.1631072113        8.5378029543       29.3609818893
  C         1.6216194253        9.8060593397       28.9640451757
  H        -2.1080479115        8.5532219017       27.2256974764
  H        -2.3474049309        9.0363690966       28.8973547537
  C        -3.2108610003       10.3497257384       27.3614844189
  H        -1.4917781946       10.9403304047       30.9295147333
  C        -1.6776839701       13.8625023574       31.6013270886
  H         5.5004028084       14.9218209312       20.7505749198
  H         4.3811338026       13.5993829600       21.0506130908
  C         6.2069084181       13.1078371415       20.2234290265
  C         3.4908167648        7.6267352593       16.1205442726
  H         2.1107313390       10.3204676070       28.1818510610
  H         1.4342362190       10.6168837084       29.6797933379
  C         2.5810689280        8.8033538768       29.6166426340
  H        -2.9105048036       10.7932082778       26.3926180014
  H        -3.5203674610       11.0728971043       28.1284198491
  C        -4.4548088872        9.5068495773       27.1098965241
  C        -1.7733463795       15.2668558019       31.8005370525
  C        -1.9050466582       13.0811700044       32.8694427198
  H         6.7139309081       12.3373002664       20.7921877202
  H         5.6702676035       12.5708531313       19.4591751043
  C         7.2425154869       13.9769664166       19.4789659501
  H         3.3950477494        6.5894174100       16.0377781359
  C         3.8378601276        8.1418197601       14.9270782339
  H         2.6723300269        7.8741940543       29.0455454672
  H         2.1740210547        8.5416810997       30.5698119618
  C         3.9380382731        9.3866458773       30.0221650775
  H        -4.2000751764        8.6857409854       26.4788261639
  H        -4.7978513125        8.9977136511       27.9831114582
  C        -5.6005653399       10.3618516383       26.5920686137
  N        -1.7260665902       16.2361406202       30.8090406401
  C        -2.2399446977       15.8942205584       32.9589255429
  C        -2.2188284482       13.7131572879       34.0964386953
  H        -1.8181989593       12.0073000690       32.9667810449
  H         6.8511175182       14.7521820670       18.8563496205
  H         7.8185718861       14.4868252037       20.2681497863
  H         8.0550226025       13.3960774610       19.0430130117
  S         4.0040851176        9.7867504617       14.4662492068
  C         3.9951684640        7.1352326907       13.8016173198
  H         4.6009919159        9.1342891749       29.1656284518
  H         3.9002559634       10.5325297135       30.2527364888
  C         4.5278998659        8.6566218185       31.2673276137
  H        -5.3187663910       10.8287816865       25.6461427906
  H        -6.0532281591       11.0520080304       27.3330842479
  C        -6.7539187639        9.6135340604       26.0591876728
  S        -1.7292964190       17.7199786613       31.4813322165
  N        -2.2525212804       17.2851898184       32.9443791389
  C        -2.3634927100       15.1841031213       34.1651670753
  H        -2.1917270297       13.1594976566       34.9947803596
  C         4.3102411196        9.2413692806       12.8559946460
  N         4.3623147535        7.8846779104       12.7681763945
  O         3.9173955227        5.9122701254       13.8016144749
  H         3.8961963596        9.0152707351       32.0793498076
  H         5.5275892638        9.1063612013       31.3090518276
  C         4.5792119719        7.0861331464       31.3031653227
  H        -6.3756442258        8.6892659389       25.6088601327
  H        -7.4795431542        9.3725500010       26.8683353422
  C        -7.6933145727       10.5238406742       25.1999835384
  C        -2.6138015983       15.9125507202       35.3728376307
  S         5.0812117387       10.3064139626       11.6808387002
  C         4.6064916605        7.1439010044       11.4679428824
  H         3.8273480300        6.7036052481       31.9992495843
  H         4.2998812103        6.6944255065       30.2553226155
  C         5.9368051528        6.5052561566       31.7025151240
  H        -7.1094780913       10.6323520815       24.3921080909
  H        -7.6456630820       11.5208345370       25.6641456330
  C        -9.0369390233        9.8282463434       24.9672501344
  H        -2.2447170946       16.9315754021       35.3029288168
  C        -3.0746668887       15.5648278422       36.5728749308
  H         5.2609721600        7.7439314774       10.8095455549
  H         5.0696277884        6.1544734701       11.6155077473
  C         3.3337908179        6.9248354198       10.6564013609
  H         5.8342576796        5.5298368603       32.2099544647
  H         6.4983972988        7.2279178464       32.3727109290
  C         6.8397601291        6.4610791607       30.4090178599
  H        -9.6411943915       10.3103080630       24.2659980329
  H        -8.9164191242        8.8053392560       24.5867122935
  C       -10.0098804061       10.0327602761       26.1247388952
  S        -3.8376373220       14.1193804506       37.0117938758
  C        -3.1096643671       16.6471615248       37.5448893903
  H         2.4392440249        7.3936597299       11.1001421120
  H         3.5177487853        7.4137901595        9.7148041854
  H         3.0537853107        5.9136644376       10.5723383276
  H         7.8455704823        6.1394154550       30.6287100021
  H         6.9598269068        7.3523997008       29.8956904071
  H         6.3915978196        5.7053820856       29.7186616142
  H       -10.9424024814       10.4954671048       25.7741395743
  H        -9.5845415384       10.5903528555       27.0274715911
  H       -10.0646840814        9.0471644553       26.4682025103
  C        -4.1409773908       14.8821159598       38.5883412147
  N        -3.8593170876       16.2083255991       38.6029490490
  O        -2.7372403741       17.8419030501       37.3644268156
  S        -5.1181935961       14.1921850840       39.8358314891
  C        -4.0453446879       17.0755552680       39.7302968584
  H        -4.1583033725       18.0616916357       39.2282706651
  H        -4.9523844922       16.8512907600       40.1672330898
  C        -2.8705985585       17.0589392015       40.7758302826
  H        -2.0231166530       16.5444122645       40.3303488940
  H        -2.5536148445       18.0732719271       40.9762444406
  H        -3.0823782176       16.4262525884       41.6080229690
