352
i=
  H         2.1148776725        2.9322034085       12.2308245457
  C         2.9334868056        2.2764193374       12.4151823738
  H         2.7005004312        1.2939023299       12.0586723477
  C         4.2178338141        2.6060288846       11.6905786608
  C         3.1065617891        2.1103918343       13.8209459392
  C         4.0966131096        2.5159133543       10.1076739208
  H         5.0174756765        1.9327013123       12.0144049080
  H         4.5682289503        3.5874012877       11.9012160996
  H         4.1661207503        1.9829772748       13.9968829261
  H         2.6290538177        1.1475339497       14.0575487532
  H         2.6295334841        2.8785065275       14.4129211927
  C         5.0011539108        1.4570883351        9.5052482434
  H         3.0070046683        2.3084111437        9.9341894033
  H         4.2542490361        3.5064364079        9.7434230504
  C         5.6459528188        1.9045980018        8.1935788421
  H         4.3211455639        0.5776733018        9.4356482734
  H         5.7733494412        1.0326670408       10.2277115480
  C         6.8328144275        2.8717867686        8.3694098391
  H         4.8897042248        2.4824742639        7.6893610656
  H         5.9802479884        0.9252070024        7.7399237287
  C         8.0766860052        2.0950604624        8.8894849636
  H         7.2166134160        3.4147581261        7.4661960189
  H         6.6481184772        3.7231702318        9.0333888663
  C         9.3791092226        2.9595941574        8.9906250653
  H         8.3116423308        1.2661655134        8.2816580041
  H         7.9552336118        1.6503997069        9.8738279774
  C         9.0314937487        4.2521297730        9.6025719539
  C         9.8218345569        3.6521386014        7.7101967755
  C        10.5471388736        2.2353519086        9.6700595624
  C         9.2178235684        5.4296624273        8.7843882738
  C         8.5348297012        4.6403695941       10.8892596521
  C         9.7645029877        5.0244968695        7.5741895371
  C        10.3802398433        3.0351492937        6.5484509555
  H        10.1458644836        1.9496460387       10.6360183119
  H        10.7649421897        1.3046046610        9.1560061807
  C        11.7144070268        3.1306275713        9.9324603631
  S         8.5678900794        6.9050559988        9.5110530624
  C         8.1957517833        5.9806609703       10.9456398260
  H         8.4768326537        3.8791631937       11.6037641655
  C        10.0242645502        5.6621256142        6.4652081687
  H        10.5167548192        1.9838315259        6.5055658399
  C        10.5725206048        3.6835492884        5.3660885476
  H        11.4358031689        4.0760275640       10.2485590392
  H        12.2490165176        3.3541553148        9.0569460921
  C        12.7344794577        2.6451662046       10.9599769538
  C         7.7493305353        6.6571477079       12.2092158800
  C        10.4381487261        5.0454933179        5.2678729563
  H         9.9200547243        6.7916075241        6.5576914241
  C        10.9996339705        3.4207206483        4.0540569144
  H        13.4434799545        3.4626256500       10.9700574018
  H        13.3053971846        1.8065087453       10.5214994994
  C        12.2397499358        2.3032679893       12.3432663883
  C         7.7357894045        8.0507352184       12.4281214763
  C         7.2362058968        5.8434136064       13.3924323194
  C        10.7284834655        5.8077991173        3.9581145627
  C        11.0861017123        4.5569939752        3.2168465677
  S        11.3711167700        1.9662906832        3.2245929882
  H        11.5924755713        3.1113707569       12.6660492114
  H        11.6957936643        1.3683505720       12.4442622168
  C        13.3501625535        2.3586957065       13.3951519444
  N         8.1480695833        8.9889624714       11.4738628800
  C         7.3963595050        8.6534348312       13.6392368183
  C         7.0261836036        6.4554358541       14.6270697154
  H         6.9385695587        4.8153046501       13.2507790055
  C        11.9922022497        6.7475149803        3.9553867749
  C         9.4484954038        6.4021613322        3.2531071516
  C        11.5436408052        4.1902419846        1.9261888367
  C        11.7102585905        2.8596550966        1.7776692713
  H        13.8115562498        3.3556923235       13.3170016172
  H        14.1832500018        1.6727675076       13.2192867870
  C        12.7831976959        2.4818440934       14.7569976666
  S         7.8911287876       10.5035131809       12.1210068485
  N         7.3482300756       10.0650271942       13.6085726597
  C         7.1542324000        7.9166454016       14.7860559978
  H         6.7909243254        5.7969496402       15.4639710330
  H        11.7125627880        7.5725104480        4.6376300134
  H        12.2513608298        7.0208782528        2.9485972645
  C        13.3220128331        6.2038149408        4.6143876480
  H         9.0088295790        7.2217669548        3.8473663622
  H         9.8790883389        6.8620697250        2.3847445047
  C         8.3424290596        5.5115324715        2.7743210287
  H        11.5682587413        4.9210251423        1.1370414357
  C        12.1012279755        2.1449024250        0.4899749691
  H        12.1422584551        3.3812118992       14.7788123649
  H        11.9999015249        1.6985677423       14.8505484261
  C        13.8593366602        2.6452322343       15.8652222175
  C         6.9475013126        8.5956799473       16.0399119095
  H        13.1134420785        5.7653270466        5.5227843695
  H        13.8164475832        5.3899589273        4.0388898307
  C        14.3989701862        7.2589503565        4.7916026784
  H         8.1851107040        4.7194490119        3.4914158694
  H         8.6102446756        5.0072995390        1.8837968502
  C         7.1713952157        6.2195609418        2.2582758033
  C        12.0692108871        0.7354571163        0.2677168520
  C        12.4103850401        2.9697105109       -0.7085173621
  H        14.3695376213        3.6150887550       15.8530889081
  H        14.4636061293        1.8350788113       15.7255248050
  C        13.1464597885        2.5787625781       17.2362817543
  H         7.0936574862        9.6098724062       16.0135736452
  C         6.6076973072        8.1138467277       17.3223740457
  H        14.3199655105        7.8731606962        5.6277817192
  H        14.3354383138        7.8907445858        3.9561526789
  C        15.7729496208        6.6062070724        4.9729827897
  H         6.7353791978        6.8132934692        3.0289873368
  H         7.5554793929        7.0158786969        1.6178572289
  C         6.1046273661        5.3965101288        1.7247352316
  N        11.6796875914       -0.2334821738        1.2104067952
  C        12.3156255478        0.1847436301       -0.9729276247
  C        12.8493162371        2.4238985352       -1.9110708068
  H        12.2695866285        4.0748290684       -0.6972106131
  H        13.0620475731        1.5902346907       17.6442062176
  H        12.1983421015        3.1410893640       17.3013470282
  H        13.7299375792        3.0090695300       18.0095551740
  S         6.4403865876        6.5452929206       18.0545444021
  C         6.3382862150        9.1852866645       18.3368467375
  H        15.7851200475        5.8517960192        4.2566068805
  H        16.4614756248        7.4086010370        4.7179147806
  C        16.1450250049        6.0013245477        6.3107100705
  H         6.1403727517        4.4919322571        2.1834761425
  H         6.4316673510        5.2132893237        0.6757780776
  C         4.6249770446        5.9987407610        1.7627441018
  S        11.7566766802       -1.6618073892        0.4935382289
  N        12.2030262199       -1.2125754814       -0.9665117836
  C        12.7600041744        0.9491996860       -2.1092267111
  H        13.2033405006        3.0149013070       -2.7521920255
  C         5.9854604747        7.3694352559       19.5402119768
  N         6.0319854228        8.6991737385       19.5828128672
  O         6.3533770018       10.4236024736       17.9669705497
  H        16.3139343582        6.7960207284        7.0806568906
  H        15.3775635270        5.3003716073        6.7070565472
  C        17.4360314099        5.2791489205        6.3542954604
  H         3.9333247700        5.2495484818        1.4557286993
  H         4.4231479059        6.2801327159        2.7984216502
  C         4.5248904188        7.1606822227        0.8482490226
  C        12.8967364519        0.1935077923       -3.3295365121
  S         6.0695330324        6.5346789218       21.0691696881
  C         6.0825260340        9.5987435110       20.8040924489
  H        17.4525613513        4.5363125686        7.1177157818
  H        17.7440844043        4.7504307905        5.4126018094
  C        18.5823927215        6.2602075246        6.7709435691
  H         4.1979080364        6.8569098604       -0.1275299397
  H         5.4833429062        7.5149717761        0.8007359706
  C         3.5229530590        8.1012980380        1.5260652572
  H        12.7144950273       -0.8382217850       -3.2509304178
  C        13.4125502702        0.4750565921       -4.5823626326
  H         5.5718241126        9.2018535868       21.6684474123
  H         5.5118688120       10.4490339037       20.5266914876
  C         7.5558591010        9.8050701503       21.2455444509
  H        18.4309454275        6.5837664362        7.7911327321
  H        18.4345734363        7.2020962931        6.1763934747
  C        19.9479582920        5.8090326030        6.3005920425
  H         3.1717289823        8.7690285674        0.7590009861
  H         2.6528104941        7.5723740353        1.8591505074
  C         4.0134277062        8.7138815264        2.8028271462
  S        14.0569769093        2.0223670182       -5.1644763099
  C        13.3641828614       -0.6634283489       -5.5100995887
  H         7.7910105228       10.6545098935       21.7936080216
  H         8.2606431238        9.9208036706       20.4734023727
  H         7.7517216803        8.9331247988       21.9193203888
  H        20.3578594622        6.2549813658        5.3851906189
  H        20.7459448216        5.9298632454        7.0925771265
  H        19.8643075266        4.7697814038        6.0576428624
  H         5.0315807354        8.7907564691        2.8863580501
  H         3.6591918889        9.7680635144        3.0121325594
  H         3.5872257880        8.1207512196        3.6147570130
  C        13.9737752788        1.1858530668       -6.6984435225
  N        13.7751046068       -0.1782316379       -6.7151630839
  O        12.8445162362       -1.7810903034       -5.3157577090
  S        14.5861192919        1.9198427857       -8.2000598532
  C        13.7282175792       -1.1065005026       -7.9368696482
  H        14.0320028119       -2.1555505343       -7.8373130300
  H        14.3026885149       -0.7055877676       -8.7596012984
  C        12.2997877656       -1.0324580144       -8.4324848770
  H        11.9081484377       -0.0538149645       -8.4405405978
  H        11.6665421188       -1.7616781544       -7.9276340814
  H        12.4582656077       -1.3716706986       -9.4747704112
  H        -2.7768639266       15.1035956913       16.1694312876
  C        -2.8042727815       13.9949318423       16.3695204490
  H        -3.8576301559       13.7853831753       16.6706232207
  C        -1.6930552605       13.5782338870       17.3558571856
  C        -2.4681263077       13.3472809424       15.0662881379
  C        -2.1595875955       13.6476218685       18.7712601584
  H        -1.3317781758       12.5315971256       17.2793588231
  H        -0.9539805567       14.2838167465       17.3328971136
  H        -1.4586895954       13.8273337992       14.8792872442
  H        -2.3378081675       12.2132531039       15.0709593896
  H        -3.1587988230       13.5818526077       14.2550393301
  C        -1.4947016875       12.6454201825       19.6768049753
  H        -3.2232001631       13.4156500124       18.8098108731
  H        -1.8842898828       14.5437350741       19.1964728181
  C        -2.0336076950       12.7243375816       21.1164088767
  H        -1.8391373378       11.6396334739       19.3084475154
  H        -0.4262700945       12.6026276185       19.6234074454
  C        -1.0857993424       12.2312688901       22.3706292869
  H        -2.9318091253       12.1387144730       21.0957967396
  H        -2.3133214618       13.7456494269       21.2839431414
  C         0.0080465925       13.3001898447       22.5649318447
  H        -1.7284390964       12.2042533289       23.2152231302
  H        -0.7062867995       11.2653601026       22.1327487117
  C         1.2189795826       12.7062487176       23.3766868887
  H         0.1629132522       13.7575339929       21.6054370751
  H        -0.3805224591       14.0443967922       23.2503357226
  C         1.7068754738       11.3537258230       22.7358386290
  C         0.9136490761       12.0242987576       24.6301990278
  C         2.3111247610       13.7628493113       23.5009716825
  C         1.4735859923       10.2488581869       23.5634046347
  C         2.1631339744       10.9891646052       21.5013950119
  C         0.9470149152       10.6613076611       24.7465994741
  C         0.3900625423       12.6480071490       25.7512423987
  H         2.2958319380       14.2675756903       22.5896725396
  H         2.0779555512       14.5857365308       24.2023888567
  C         3.7484558084       13.2655997034       23.5883192804
  S         2.0516275965        8.8121338114       22.8916097230
  C         2.3935347862        9.6685602843       21.4507418841
  H         2.1858355493       11.6779982489       20.7419170569
  C         0.6713362613       10.0245787127       25.8695513875
  H         0.3138487941       13.6973091145       25.7582189228
  C        -0.0079299424       12.0332168059       26.8951912155
  H         4.1681433657       12.8461123834       22.6755835765
  H         3.7305604304       12.5218839292       24.3636090109
  C         4.6923226777       14.3962090767       23.9613532763
  C         2.6344286925        8.9046096058       20.0858908134
  C         0.1800542278       10.7003975347       26.9679452338
  H         0.8551350898        8.9533852722       25.8267216971
  C        -0.4019479604       12.4228795903       28.1488363174
  H         5.4762828247       13.9807370601       24.5532685108
  H         4.3434548919       15.1667157756       24.6183852537
  C         5.3527675731       14.9975425225       22.7569211260
  C         2.7050343569        7.5703201138       19.8223214329
  C         2.9030635308        9.7884233566       18.9350548066
  C        -0.2004808785        9.9840023432       28.2445145288
  C        -0.5199548707       11.3647836082       28.9701115099
  S        -0.6965373107       13.9270078880       28.8364580333
  H         5.8696441929       15.9233383343       23.1252982173
  H         4.5299147545       15.2167603140       22.0432259897
  C         6.4734037375       14.2310318314       22.1022019311
  N         2.3812908250        6.6094491079       20.7647750122
  C         2.9394774563        7.0812540096       18.5271601172
  C         3.1837723323        9.3761405334       17.6586838681
  H         3.0638415839       10.7990515690       19.2117725325
  C         1.0204969866        9.1644398654       28.8477923964
  C        -1.4252805673        9.0999563851       28.0954906161
  C        -0.8965119818       11.7255670698       30.2551614318
  C        -0.9954615753       13.0717863354       30.3569420151
  H         7.2937220788       14.8752186424       21.8658841694
  H         6.7127701064       13.2710761788       22.6504796214
  C         6.1778863284       13.7271332442       20.6868560088
  S         2.3630932385        5.1811073157       19.9654291182
  N         2.7739346251        5.6935388237       18.4699881794
  C         3.2715246620        7.9365574572       17.4120341000
  H         3.4687907184       10.0495619265       16.8714760380
  H         1.4274842956        8.5788130978       28.0202561425
  H         0.6596313102        8.4673918335       29.6236667533
  C         2.1554493267        9.9137652357       29.5275487640
  H        -1.2372511810        8.2636825739       27.4646261585
  H        -1.6759990491        8.7451020942       29.0078902199
  C        -2.6989419286        9.7668241659       27.5488318189
  H        -0.9456902140       10.9013711523       30.9553467213
  C        -1.3708058693       13.8380273900       31.6194037571
  H         5.9258215738       14.5806401187       20.0120760463
  H         5.3938815768       13.0232868764       20.8230736623
  C         7.3843265433       13.2001006727       19.9241739249
  C         3.4267539279        7.3239008475       16.1423926226
  H         2.7619872253       10.3998289408       28.7188220222
  H         1.9162833131       10.7798518445       30.1489242096
  C         3.1862093382        9.0295224900       30.1612933335
  H        -2.2670599281       10.3294625039       26.7703263141
  H        -3.0443412879       10.4247157677       28.3598168253
  C        -3.6788323440        8.7175805435       27.0266396274
  C        -1.4947509399       15.2790500911       31.7546512733
  C        -1.6476909241       13.0734175117       32.8914403591
  H         8.3920422462       13.5953625184       20.2059318677
  H         7.3604096051       12.0881078891       19.9306184754
  C         7.3797844074       13.4944118504       18.4339801952
  H         3.3230403773        6.2419744299       16.1768406890
  C         3.6098578337        7.8667195111       14.8888188613
  H         3.2861498422        8.0753764283       29.6753587877
  H         2.7908034295        8.7358253958       31.1707555992
  C         4.5697582744        9.7414089983       30.3884345494
  H        -3.2920962148        8.4006840682       26.0168355365
  H        -3.7073539456        7.8768273083       27.7857777196
  C        -5.0259500059        9.2779793749       26.8007622539
  N        -1.1172812118       16.1986499263       30.8544845514
  C        -1.8787226337       15.8811719695       32.9305575577
  C        -2.0946878749       13.6891075924       33.9791774897
  H        -1.5467387653       12.0081826474       32.9087625380
  H         7.4953424235       14.5473466529       18.1576820934
  H         7.9935572625       12.8371521548       17.8264472155
  H         6.3637699755       13.2044635987       18.0962464597
  S         3.9398177552        9.5420178759       14.4365778422
  C         3.7878810916        6.9690450067       13.7382878675
  H         4.7135388111       10.5886828504       29.7941815787
  H         4.5062344715       10.2359909785       31.3621899805
  C         5.8194723145        8.8521289651       30.4901543314
  H        -5.2908301116       10.0210241570       27.5326400413
  H        -5.7279611325        8.5294258319       26.9851798985
  C        -5.1172769495        9.7817620132       25.3452543651
  S        -1.3490863269       17.6633287187       31.4983002060
  N        -1.9000708791       17.2062579276       32.9320164430
  C        -2.2168014612       15.1309582904       34.1283401766
  H        -2.2866461132       13.1055113592       34.7894648094
  C         4.4218476853        8.9276875468       12.8481133146
  N         4.2236176878        7.6230581436       12.6421454621
  O         3.6069210703        5.7329073112       13.8002102068
  H         6.6405300468        9.6058627212       30.6378254362
  H         5.8951498160        8.4010773338       29.4806827245
  C         5.8036398127        7.7324067674       31.5734611796
  H        -4.1888136465       10.2253358196       25.0839585412
  H        -5.1704664922        8.9238517186       24.6697609123
  C        -6.2633576743       10.7019738870       25.0964021514
  C        -2.5156647011       15.8893909221       35.3193863195
  S         4.7992624642        9.9579006939       11.4440349458
  C         4.3389355711        6.9116023178       11.3979008643
  H         5.9011938671        8.2858368642       32.4898509854
  H         4.8891924276        7.2215987728       31.4914589521
  C         6.8001275174        6.6081516923       31.4661538498
  H        -6.2013183899       11.1514526126       24.1164904150
  H        -6.2304171540       11.5935944448       25.6795473143
  C        -7.6063664265       10.0116437499       25.2142530605
  H        -2.4359915818       16.9176085625       35.1906839658
  C        -2.9499641146       15.4578103425       36.5226180678
  H         5.1813596098        7.4493701188       10.9970017339
  H         4.6178514319        5.8791036973       11.5707935325
  C         3.0278016582        6.9388295519       10.6128475135
  H         7.1278169833        6.2329146670       32.4321268112
  H         7.7651842779        6.9894435083       31.1222867884
  C         6.2982973400        5.4368312313       30.6947748194
  H        -7.4330468118        8.9413234617       24.9753158869
  H        -7.8846931698       10.1420204029       26.2789497876
  C        -8.7717980082       10.4997497802       24.3609980429
  S        -3.3255252173       13.9028263642       37.0917763556
  C        -3.0516335724       16.4510866913       37.6195923595
  H         2.6320916871        7.8580587523       10.4089127807
  H         3.1895370500        6.6211763110        9.5453525294
  H         2.1975758241        6.3556757757       11.1320855241
  H         7.0005710698        4.6224053653       30.7379096655
  H         6.0096370677        5.7891143290       29.7463648236
  H         5.4059164039        5.1033606231       31.2081100601
  H        -9.6052128004        9.8260183139       24.4338475919
  H        -8.5650019260       10.7005791993       23.3154939028
  H        -9.0480446843       11.4358318413       24.7886417624
  C        -3.5130020041       14.5100445029       38.7059714481
  N        -3.5243129412       15.8742900108       38.7198548173
  O        -2.8167314516       17.6528316278       37.5269347046
  S        -4.0592323616       13.5549345082       40.1312291683
  C        -3.8109154412       16.7272086916       39.8888327580
  H        -4.2462709431       17.6504246794       39.5429955928
  H        -4.5867928360       16.3359554480       40.4915709579
  C        -2.6338126608       17.0829097228       40.6814934990
  H        -2.4528122376       18.1616938000       40.4677522706
  H        -2.6409451348       16.8839258745       41.7383593537
  H        -1.7577196030       16.5241995130       40.2744840343
