352
i=
  H         2.2593244585        3.5146640602       12.9174824022
  C         2.7227660635        2.5965815084       12.7291861082
  H         2.2054246033        1.9356560491       13.4286098622
  C         2.4512350167        2.1829834043       11.2303397331
  C         4.2053561529        2.5836978361       13.1576212432
  C         3.5388076207        2.5838250492       10.2292333782
  H         1.5366480708        2.6359646301       10.8585938743
  H         2.3146482531        1.1735028546       11.1634257391
  H         4.2715161410        2.7214852474       14.2026137029
  H         4.7576809385        3.4185685224       12.7692107174
  H         4.7490863048        1.6585648658       12.9360703572
  C         4.4259600587        1.3596458272        9.8107085504
  H         2.8462450944        2.9079040798        9.4220359042
  H         4.0729384861        3.5115649808       10.5767558142
  C         5.3650537559        1.6335153169        8.6313704686
  H         3.7397834794        0.5718577770        9.6027005383
  H         4.9602520893        1.0909925384       10.7157972467
  C         6.5353664964        2.5118803945        9.1324386678
  H         4.8424427265        2.0968030192        7.7656847539
  H         5.8169803283        0.7370863792        8.3859250827
  C         7.8488986254        1.8046668862        9.3872258876
  H         6.7280968364        3.0787419738        8.2430511446
  H         6.1483333246        3.2580464136        9.8939022206
  C         8.9949245348        2.7621391594        9.5389383485
  H         7.9725669032        1.1142930595        8.5580021902
  H         7.9787088239        1.1130895961       10.2467660234
  C         8.7203989061        4.1179111526       10.2356764630
  C         9.4651733245        3.4537233575        8.2705179796
  C        10.0843965930        2.0083139293       10.3531903870
  C         8.9929509822        5.1994695754        9.4225693279
  C         8.2745820414        4.5138051691       11.4984802900
  C         9.4407797487        4.7944804046        8.1403897129
  C         9.8906537604        2.7701972310        7.1143530584
  H         9.5861087245        1.4936024407       11.1783452538
  H        10.5593155500        1.2271829090        9.8025366573
  C        11.2155866077        2.9329005792       10.8639676784
  S         8.6677623056        6.7155884747       10.1548503857
  C         8.1244785834        5.9044487564       11.5650138788
  H         7.9882088824        3.7075935758       12.1859405111
  C         9.8615275013        5.4025521265        6.9620341909
  H         9.8036924632        1.7207119647        7.1992464579
  C        10.2769874628        3.3357396940        5.9447006449
  H        10.7845039048        3.8272416867       11.2967244320
  H        11.7182253866        3.3427817239        9.9733336920
  C        12.2546757030        2.1903194706       11.7156480969
  C         7.5711179166        6.5656062281       12.7773431705
  C        10.3188284613        4.7026773818        5.8428496609
  H         9.7457111508        6.4582166160        6.9031240280
  C        10.7214355935        2.9037626893        4.7195223995
  H        13.2235853006        2.6196019698       11.7423175641
  H        12.4644629733        1.1362355482       11.3071400069
  C        11.7110553741        2.1717677557       13.1238484889
  C         7.7696439132        7.9105481211       13.1149868077
  C         7.0895137070        5.7615236426       13.9228928879
  C        10.7745669984        5.3023450109        4.5874878974
  C        11.0235023560        3.9867451273        3.9183707674
  S        10.9635642547        1.3828059381        3.9567885180
  H        11.2045099212        3.0409513825       13.3031286224
  H        10.9982867148        1.4468419404       13.3299600221
  C        12.8817780918        2.2821515412       14.0475707125
  N         8.3756653466        8.8747643209       12.2875213333
  C         7.4364452019        8.4778918861       14.3539682641
  C         6.7568569497        6.3035846221       15.1618199067
  H         6.8443653841        4.6834497340       13.7733409693
  C        12.0590253769        6.1741972689        4.6454494821
  C         9.6028854868        6.1676903570        3.8420940681
  C        11.4866751476        3.5756625898        2.6746257323
  C        11.5029522731        2.2366324045        2.5579783337
  H        13.3869989860        3.2532610292       13.9478792954
  H        13.6298041868        1.5284635759       13.7459630643
  C        12.3494645335        2.0212745569       15.4725091857
  S         8.4826407465       10.3334899988       13.0875536358
  N         7.8521107245        9.8078928427       14.4834957411
  C         6.9576645243        7.7828238953       15.4734549608
  H         6.2054877619        5.6879424857       15.7958876018
  H        11.9320455993        7.0667309024        5.2305716796
  H        12.1864609646        6.5733222983        3.6032006846
  C        13.2507913402        5.3811604708        5.0795098968
  H         9.1353789097        6.9567629839        4.4108021689
  H         9.9938641615        6.8215989244        3.0348078473
  C         8.4627949129        5.3065726883        3.2163655776
  H        11.7590902504        4.2945901609        1.9366600796
  C        11.8761440074        1.4582985731        1.3436565076
  H        11.5650679515        2.7384162215       15.6176604741
  H        11.7777810937        1.1021346131       15.3599959333
  C        13.3962220167        2.0915864160       16.6237550589
  C         6.7072592215        8.4999679271       16.6648973978
  H        13.0598444337        4.9171544441        6.0749970566
  H        13.4335260997        4.6128574712        4.3451668300
  C        14.5017865850        6.2302919066        5.2092402895
  H         8.0781493441        4.8829765633        4.1407649555
  H         8.8386744405        4.5401081974        2.5813762776
  C         7.1556774014        6.0527218780        2.6743723873
  C        11.8974083597        0.0413710666        1.1535727577
  C        12.1393231983        2.1845395832        0.1552422332
  H        14.0568616355        2.8219153041       16.3651558446
  H        14.0260839516        1.2522490574       16.6084516450
  C        12.7465564058        2.5548147992       17.9469838688
  H         7.0225413317        9.5675480349       16.6432016831
  C         6.3158009574        8.1275608560       17.8971903336
  H        14.3463135529        7.0499311572        5.9185293133
  H        14.6786117846        6.6022480580        4.1599843859
  C        15.7323304453        5.3736277931        5.6442434818
  H         6.8261020392        6.7450478321        3.4830464260
  H         7.3844242014        6.7584697337        1.9530074157
  C         5.9828133546        5.1718241431        2.1771323020
  N        11.5870181465       -0.8863808344        2.1474457047
  C        12.0826428987       -0.5588406439       -0.0592567733
  C        12.3582241027        1.6342652324       -1.0861224300
  H        11.9749901542        3.2630265758        0.1715071743
  H        12.0455005913        1.8427313280       18.5114937931
  H        12.3210928510        3.5355907379       17.8940898015
  H        13.6442868778        2.6381000753       18.6029316009
  S         5.8590297107        6.5625604839       18.4186255319
  C         6.2702606980        9.1781507992       18.9441682803
  H        15.4228291598        4.6271538590        6.3423477417
  H        16.1759973690        4.8917261747        4.8004981120
  C        16.8938923700        6.0913588656        6.1895854536
  H         5.5437377829        4.7771249445        3.0935455708
  H         6.3012567972        4.2276470838        1.6745039807
  C         5.0609241448        5.9546092973        1.2971585633
  S        11.4443419323       -2.3601495484        1.5091393640
  N        11.9252838779       -1.9230531013       -0.0233884404
  C        12.3408605667        0.1310772769       -1.2605025656
  H        12.4613228115        2.2785895524       -1.9545510972
  C         5.6964250887        7.2627106072       19.9784554462
  N         5.8559351701        8.6025698769       20.0865627992
  O         6.7358312408       10.3453908289       18.7640257720
  H        17.4597034761        6.6407438778        5.4360903593
  H        16.5834520928        6.8765503230        6.8986297887
  C        17.8030406076        5.2632314496        7.0206423085
  H         5.6208367921        6.4330037025        0.4682175394
  H         4.2995262118        5.3590728733        0.8032220890
  C         4.3085470840        7.0806724638        2.0107480903
  C        12.5302925930       -0.5821674304       -2.4965992034
  S         5.4363291744        6.3676457832       21.3762650527
  C         5.7652420528        9.4592381405       21.2526371528
  H        17.3297015432        5.1266431799        7.9694567048
  H        17.9795165502        4.3368606796        6.4721722878
  C        19.1864246083        5.8712629035        7.1482330074
  H         4.5557775978        7.1060165577        3.1188683589
  H         3.2824228770        6.8797671098        2.1642670074
  C         4.5572498097        8.4715995039        1.4294869938
  H        12.4771105562       -1.7046933223       -2.4185025312
  C        13.0276190599       -0.2993396628       -3.7841891523
  H         5.0609962541        9.0645789479       22.0001836775
  H         5.3027610237       10.4186861434       20.8784981201
  C         7.0722923735        9.7500180527       21.9431723472
  H        19.6408395658        5.4545647039        8.0652536069
  H        19.1343651950        6.9950601606        7.2478238885
  C        20.2621751446        5.6472453767        5.9896314952
  H         5.6390544641        8.8065338167        1.4948801046
  H         4.5247434234        8.5494417155        0.3119075171
  C         3.7303071456        9.4797190417        2.0439043292
  S        13.5651622028        1.2550983183       -4.2506626153
  C        13.1203995579       -1.4318224675       -4.7806030159
  H         7.8797198729        9.9036744573       21.2242208879
  H         7.2756465687        8.8519388999       22.6061322618
  H         7.0019257054       10.7679472611       22.4581390307
  H        19.8275836712        5.7848162160        4.9971965453
  H        20.9633271256        6.4493008431        5.9714888801
  H        20.7657307580        4.6753942551        6.0361178784
  H         3.2818823338        9.1119953347        2.9179634937
  H         4.1429500872       10.5122494993        2.2693033765
  H         2.9657542977        9.6072869088        1.2440818604
  C        13.9815397571        0.4084602223       -5.7664508353
  N        13.8027764205       -0.9142753070       -5.8380340008
  O        12.7256153525       -2.6197662920       -4.6605991147
  S        14.4514134540        1.1523812833       -7.3438375813
  C        13.9569401660       -1.6543892149       -7.0851245165
  H        14.0800415909       -2.7072131520       -6.8223093988
  H        14.8877049664       -1.4341226184       -7.6186273731
  C        12.6717964669       -1.4649575118       -8.0123219922
  H        12.1366802258       -2.4183169706       -8.1900811537
  H        12.9559031600       -1.0502339577       -8.9778595177
  H        12.0299413142       -0.6989630530       -7.5815109965
  H        -1.2321748800       12.9642302874       16.8077439231
  C        -1.8989887992       13.7194531160       16.3556724534
  H        -1.2589870218       14.2185548303       15.5913613787
  C        -2.2824070354       14.6017400422       17.5200687594
  C        -3.0378379296       13.0096585781       15.6230339414
  C        -2.8809219183       13.8878313157       18.7298454740
  H        -1.3969250327       15.0954016124       17.8884048417
  H        -2.9599769173       15.3367757903       17.0853140035
  H        -2.9216408359       11.9400947627       15.5681065892
  H        -4.0020010795       13.0895813120       16.2061132237
  H        -3.1249862530       13.4505637894       14.6074742444
  C        -1.8110840602       13.5130358104       19.7886780821
  H        -3.3319122345       12.9660826371       18.3597104178
  H        -3.6345989624       14.4503592308       19.2784506181
  C        -2.4370558400       13.3329880245       21.1421666790
  H        -1.3198326077       12.6139484856       19.4345781375
  H        -1.0604280773       14.3365980571       19.9553880733
  C        -1.5050324437       12.8254001767       22.2789888230
  H        -3.3111677575       12.6606177275       20.9005947713
  H        -2.8730406879       14.2853089364       21.3786383145
  C        -0.2699573860       13.7944587461       22.4752388867
  H        -1.9872306959       12.8422789876       23.2611293878
  H        -1.1531715672       11.8071247533       22.0980582228
  C         0.9686347213       13.1392824055       23.1961233812
  H         0.0774949833       14.2637124745       21.5826000299
  H        -0.5954958825       14.6744672262       23.0051493029
  C         1.3209597552       11.8469962125       22.4731782020
  C         0.5410408982       12.4645606242       24.4173055189
  C         2.2132482155       14.0740516506       23.3558056334
  C         1.1629895138       10.7436922448       23.2972362046
  C         1.7404913547       11.4493433061       21.1951411785
  C         0.7134974304       11.1044131179       24.5159779708
  C         0.0755045655       13.0581117043       25.5231389732
  H         2.4305389230       14.4075742631       22.3468244817
  H         2.1162199716       14.9232334760       24.0008822116
  C         3.4006559141       13.2786003167       23.8797396495
  S         1.6567393327        9.1923975854       22.5921379641
  C         2.0064884148       10.0840444488       21.1222092216
  H         1.8470642010       12.2320102058       20.4007247056
  C         0.3486474583       10.4634342312       25.6792199572
  H         0.0728526703       14.1351623487       25.5771882852
  C        -0.2241876727       12.4313721466       26.6598736622
  H         3.7610498046       12.6646990828       23.0312828423
  H         3.1287197505       12.6757136478       24.7804249831
  C         4.7194735498       14.1633735052       24.2127443737
  C         2.3620418686        9.4758057591       19.8791538777
  C        -0.0872025749       11.0879097171       26.8264100074
  H         0.4964697901        9.3975021853       25.5932747996
  C        -0.5334128420       12.8237999538       27.9513923840
  H         5.4128470488       13.4805926235       24.7537205427
  H         4.4763461202       14.8364769186       25.1093334810
  C         5.4561150808       14.9827879088       23.1707295485
  C         2.2866895791        8.0757164459       19.6281831896
  C         2.7641472827       10.3284396015       18.7736777726
  C        -0.3895712274       10.3728843614       28.0720672051
  C        -0.6614022699       11.7310345801       28.7757959691
  S        -0.9455282582       14.3661158846       28.6826051310
  H         6.0731187416       15.7191871080       23.5423153352
  H         4.6683980075       15.5592701149       22.6952843711
  C         6.1913593564       14.1704634946       22.0954412893
  N         2.0430852393        7.0536093851       20.5300281866
  C         2.6014358216        7.5109413770       18.3973710415
  C         3.0393344831        9.7834704974       17.5259401735
  H         3.1288508412       11.3259623533       18.9714254883
  C         0.7715697019        9.6062161126       28.7632202303
  C        -1.6682479222        9.5384060433       27.9853172373
  C        -1.0942135740       12.1037990893       30.0888848197
  C        -1.2451827181       13.4897108038       30.1942096181
  H         6.9335300930       14.8048094728       21.6457243990
  H         6.4730871149       13.2428640504       22.6411610631
  C         5.2388670017       13.9414637032       20.9296599157
  S         2.1593516529        5.6303429459       19.8524803875
  N         2.4296916082        6.1426684319       18.3705477857
  C         3.0110070083        8.2785122445       17.2743101532
  H         3.3246412730       10.3957772222       16.6891009833
  H         1.0658884814        8.9727422414       27.9982892528
  H         0.5220891419        8.9450853938       29.5217993408
  C         1.9953006428       10.4911576633       29.2063231346
  H        -1.4062638088        8.8195797930       27.2676719632
  H        -1.9781149014        9.1289205862       28.9947440176
  C        -2.8970388950       10.2498627142       27.3969386144
  H        -1.2507103073       11.2857482086       30.8389115916
  C        -1.5421512376       14.2262216604       31.4921439539
  H         4.8157077028       14.7976168867       20.4736690232
  H         4.4595307048       13.3399129029       21.3481501238
  C         5.8673924614       13.1431474585       19.8076685076
  C         3.2972537524        7.6172191640       16.0482560064
  H         2.3603170238       11.1286244413       28.3901489689
  H         1.7456609977       11.1610287520       30.0307481089
  C         3.2102933152        9.7474325723       29.7527563004
  H        -2.5830422477       10.7222863981       26.4462204024
  H        -3.2152052742       11.1716843368       27.9966960655
  C        -4.1009728001        9.3677552931       26.9712670827
  C        -1.5664878076       15.6511799884       31.6461117428
  C        -1.9071695139       13.4641303843       32.7396794258
  H         6.5007028063       12.2472944968       20.0977565325
  H         5.1492011226       12.5201515180       19.1448680705
  C         6.8436381760       13.8153810202       18.8799070093
  H         3.1626134658        6.6144064163       16.0925054729
  C         3.7751402361        7.9728123510       14.7962712655
  H         3.6431289587        9.0456389539       29.0933006581
  H         2.8760436278        9.1449600516       30.5464701378
  C         4.3910855248       10.7084351654       30.1132394372
  H        -3.8623884763        8.9352881607       26.0818699120
  H        -4.2287469034        8.6404616803       27.7561690161
  C        -5.3806300122       10.1707967182       27.0022265231
  N        -1.4630672519       16.6079218058       30.6220829033
  C        -1.8608022176       16.2573992166       32.8688884386
  C        -2.0945305614       14.1104870892       33.9902457235
  H        -1.8972325838       12.3959833531       32.7798934567
  H         7.0860680685       13.2124987278       17.9804846375
  H         6.4826941618       14.8278210523       18.5633265474
  H         7.8449055427       13.9765754326       19.3691891169
  S         4.1986048496        9.5440528632       14.1936801568
  C         3.9403685509        6.8823445866       13.7799872317
  H         4.3694478068       11.3993948339       29.3143094162
  H         4.3095226519       11.2322507934       31.0454178609
  C         5.7402233896       10.0678471812       30.1153443287
  H        -5.0861830805       11.2037285330       26.7979870216
  H        -5.8274847630       10.2577194529       28.0056795069
  C        -6.3324991779        9.6048168658       25.9750579736
  S        -1.4576103927       18.1543937938       31.2866496602
  N        -1.9058424968       17.6447435815       32.7866153925
  C        -2.1374395180       15.5675752991       34.0936726142
  H        -2.3488724838       13.5584138057       34.8701138225
  C         4.3921117512        8.7758423360       12.6045861845
  N         4.3272010903        7.4198499087       12.6161565235
  O         3.6452212782        5.6769616060       13.9798315219
  H         6.5774508468       10.7446939065       30.3990953494
  H         5.9112307273        9.7645702554       29.1422371893
  C         5.8329836264        8.9753258410       31.1275128265
  H        -5.7513140663        9.3697997943       25.0153735545
  H        -7.0433700382        8.8544783733       26.2751152269
  C        -7.1552904078       10.8090201947       25.4487698201
  C        -2.4554409019       16.4468085876       35.2045914340
  S         4.9216808580        9.5825576097       11.1902749594
  C         4.3308659730        6.6934699963       11.3686762593
  H         6.1480843287        9.4260334210       32.0479678129
  H         4.8745054098        8.4323856439       31.1388394560
  C         6.9540840843        7.9727009684       30.8192011544
  H        -6.7628435352       11.1557289754       24.4850120370
  H        -7.0879686189       11.7955813313       26.0084795686
  C        -8.5868472202       10.2957271099       25.1815415922
  H        -2.2248936255       17.4509190931       35.0974596087
  C        -2.9280269197       16.1803397903       36.4693240525
  H         5.0069198751        7.0111161336       10.4768219220
  H         4.6450315315        5.7063390592       11.5388773522
  C         2.9445382169        6.5416551345       10.8134643828
  H         7.4146430453        7.6027517650       31.6992023564
  H         7.7350615030        8.5650751738       30.3517796541
  C         6.4855815905        6.8904130125       29.8573728928
  H        -8.9417978171       10.8225333075       24.3221828486
  H        -8.6013199047        9.2404649437       24.8431676154
  C        -9.4280720840       10.4302991136       26.4129243259
  S        -3.0903513327       14.5783719806       37.1248724782
  C        -3.0738103039       17.2673801482       37.4539915323
  H         2.9834455982        7.1046023377        9.8436146350
  H         2.6947294445        5.5589476210       10.5279643868
  H         2.1689414104        6.8913618434       11.5158776176
  H         6.0218427458        7.1359822444       28.9119417730
  H         5.7423845986        6.2866870815       30.3711709811
  H         7.3243664773        6.2906767876       29.6688021362
  H        -9.2444380874       11.4463252462       26.7991391557
  H        -9.1501298850        9.7594936133       27.1475723794
  H       -10.5287424224       10.3393950593       26.3141326908
  C        -3.5502331686       15.3190563562       38.6448507034
  N        -3.4740564699       16.6811418529       38.5930689509
  O        -2.8351636727       18.4615214204       37.2210499841
  S        -4.0484880272       14.5640866410       40.1704427180
  C        -3.8457984821       17.4867614820       39.7082293610
  H        -4.0048013358       18.5485298527       39.4353380206
  H        -4.8138182136       17.1736998412       40.1655365269
  C        -2.7927180692       17.4946633513       40.8110859109
  H        -3.0564232093       16.6882771225       41.5068681692
  H        -1.7126920152       17.3890172067       40.4814199003
  H        -2.7939829778       18.3512428622       41.3777082613
