352
i=
  H         4.5101756814        0.4983460131       12.1135048072
  C         4.3630936436        1.5736981202       12.3344352611
  H         5.2105530104        2.0780794842       12.0450172133
  C         3.2124736010        2.0119065724       11.4307075697
  C         4.0418681412        1.6310845249       13.8232493390
  C         3.8364419623        2.5246446697       10.1535623947
  H         2.6005838565        2.7916661711       11.8397406902
  H         2.5633158740        1.1932141247       11.1786757435
  H         3.3138530538        0.8121614907       14.0468457173
  H         3.5092079203        2.4708805640       14.0979614127
  H         4.9036656398        1.4169356034       14.5063344880
  C         4.5105148663        1.3914953856        9.2798724838
  H         3.0290416993        2.9895497078        9.6109005317
  H         4.5468538083        3.2584981254       10.3752698370
  C         5.2571388358        1.8509070254        8.0197941897
  H         3.7934057581        0.7022907015        9.0212404101
  H         5.2108467160        0.9005073677        9.9395860176
  C         6.5158904449        2.7115570980        8.3188045425
  H         4.5264729317        2.5100192680        7.5250821132
  H         5.4358057532        0.9110119332        7.4187906673
  C         7.7778829199        1.8828912576        8.7098392746
  H         6.6986602053        3.4608793149        7.5985202036
  H         6.3075559436        3.2510166119        9.1999784585
  C         9.0027098998        2.7523189470        9.0408714321
  H         7.8810162152        1.3114142037        7.8086626642
  H         7.5682535442        1.2140597416        9.5661285888
  C         8.6387065240        4.0483654040        9.7618143331
  C         9.3137619956        3.4867251656        7.8208627268
  C        10.2341155036        1.9879784026        9.6861508342
  C         8.8492025932        5.1704530999        8.9941377281
  C         8.1704148481        4.4172167296       11.0379544703
  C         9.2584653248        4.8326015259        7.7246240635
  C         9.7366907909        2.8430247194        6.6968873925
  H         9.8576027132        1.4799862856       10.5982953183
  H        10.3893987545        1.1206967237        8.9987857860
  C        11.3733061909        2.8903339218       10.0010253339
  S         8.6352427721        6.7028935647        9.7898879532
  C         8.0950613103        5.7652476626       11.1883925375
  H         7.9633001572        3.6769055891       11.7966349253
  C         9.6551617057        5.4796320361        6.6078333380
  H         9.8396908321        1.7681983404        6.6813577587
  C        10.1338771312        3.4867280454        5.5807306398
  H        11.1409058784        3.7594317428       10.6059240159
  H        11.8370537688        3.2666697918        9.1264608567
  C        12.5360082544        2.0947139164       10.5994871850
  C         7.6519853336        6.4283625878       12.4716116803
  C        10.1134996502        4.8169031015        5.4698113935
  H         9.6273475643        6.5490188042        6.6804332265
  C        10.6239411769        3.0433487460        4.3631362868
  H        13.4671713784        2.6407520048       10.5090612251
  H        12.5872651458        1.1134741091       10.0616168598
  C        12.1863231482        1.7242579406       12.0913001899
  C         7.5764525489        7.7913461937       12.7712649472
  C         7.3222259000        5.5158356730       13.6354097563
  C        10.6343834503        5.5154087924        4.1451572879
  C        10.9797565999        4.1105786469        3.5018340517
  S        11.0085929780        1.4712020957        3.5936871776
  H        11.4968661838        2.4383537572       12.5104822697
  H        11.7375694875        0.7122829193       12.1247429869
  C        13.4855417988        1.7856447394       12.9549793572
  N         7.7895102656        8.7533544914       11.7656389179
  C         7.3834233386        8.3205517201       14.0318833004
  C         7.2130463728        6.0446416550       14.9133803078
  H         7.1254078392        4.4647213065       13.5001466208
  C        11.9042363317        6.2831850431        4.4051481829
  C         9.6656443988        6.3257197934        3.2698851973
  C        11.4181790925        3.6805826553        2.2368931010
  C        11.4207188175        2.3035964825        2.1050366312
  H        13.9115490868        2.7691152392       13.1222091021
  H        14.2210791288        1.3086847527       12.3770447897
  C        13.3918259922        1.0509855675       14.3176332400
  S         7.7904679344       10.1705174945       12.4680575264
  N         7.3057380133        9.7192113504       13.9834376991
  C         7.1730103475        7.4958565438       15.1590786752
  H         6.8351118186        5.4370162928       15.6866279922
  H        11.6767667391        7.0340949430        5.1430720247
  H        12.1069487795        6.7987791682        3.4995606886
  C        13.1756270110        5.6109805471        4.7258357407
  H         9.2249133216        7.1456369393        3.8847014353
  H        10.0854529135        6.8244129899        2.4241517919
  C         8.4513387260        5.4981686637        2.7950344832
  H        11.6848936724        4.5182276154        1.5711203455
  C        11.6803291508        1.5296690352        0.8762577534
  H        13.1404009828       -0.0073893655       14.1219374003
  H        14.4456871619        1.0637791552       14.7631633627
  C        12.2337627598        1.6041655762       15.1915067033
  C         7.0158478062        8.1561681548       16.4074486961
  H        13.0301570342        5.0908871668        5.6662634987
  H        13.4299453929        4.7890182311        4.0127563194
  C        14.3326794145        6.6254834171        4.8574739302
  H         8.1341467934        4.6000615678        3.3838846746
  H         8.9321853194        5.0206035664        1.9486291210
  C         7.3173818453        6.4154890592        2.3686959398
  C        11.7353902397        0.0775264497        0.7687963601
  C        11.9810462747        2.3176970409       -0.3184683714
  H        11.3582743106        0.9345436335       15.2641147947
  H        11.9864032194        2.5108775110       14.7692238451
  C        12.6440776798        1.8527175600       16.6181411238
  H         7.2772369586        9.1614267817       16.3506356298
  C         6.6675864078        7.7683844266       17.6600773774
  H        14.1944350732        7.3241799808        5.6791854100
  H        14.3385282662        7.1968757249        3.8647736534
  C        15.7232371018        6.0118790506        5.0525065766
  H         7.2786186445        7.3639753798        2.8308091633
  H         7.3190493370        6.7262822201        1.3365990915
  C         5.8862759433        5.8553559795        2.6005155678
  N        11.4934949198       -0.8261457644        1.8003349336
  C        12.0804289431       -0.5624095107       -0.3524364931
  C        12.1897404938        1.6127680955       -1.5039985971
  H        11.9547363215        3.3861097502       -0.2675944003
  H        13.6148973006        2.3597085423       16.6896468705
  H        12.7920339009        0.9670312396       17.2077205682
  H        11.8589405759        2.4147309514       17.0721591365
  S         6.2480195120        6.1975284720       18.0916446746
  C         6.5973245992        8.7916945657       18.7075157902
  H        15.8690876731        5.0458702634        4.6418661799
  H        16.5477762789        6.6181546249        4.7143885891
  C        16.0156869656        5.8854674930        6.4819774541
  H         5.7700348248        5.7473022322        3.7243083899
  H         5.8267171801        4.8179588915        2.2175373531
  C         4.7578110857        6.6133502167        1.8227164440
  S        11.4861104980       -2.3218927276        1.2024259910
  N        11.9864571680       -1.9340478684       -0.3393190597
  C        12.2768995733        0.1019927906       -1.5507617526
  H        12.1502471233        2.1806647172       -2.4479317277
  C         6.0500401204        6.8192811042       19.7793222395
  N         6.2128967704        8.1455418717       19.8680560678
  O         6.7095652985       10.0472913982       18.5953176842
  H        16.2838871052        6.8754528741        6.7820180860
  H        15.1590419557        5.4685139306        6.9289605876
  C        17.1927446746        5.0510051606        6.8508674853
  H         4.9490600200        6.7674321461        0.7601048030
  H         3.8486755537        5.9356233448        1.8442181646
  C         4.3405680964        7.9724202912        2.4927482605
  C        12.6287933707       -0.5544527203       -2.7880422253
  S         5.5675070352        5.9288296692       21.1177418293
  C         5.9997768523        8.8478403817       21.1269096293
  H        17.1798423031        4.6787424523        7.9027057258
  H        17.2618373717        4.0696881410        6.3305287161
  C        18.4914873239        5.9179833826        6.8953941493
  H         5.0084944859        8.2550629784        3.3839401465
  H         3.4052484045        7.8936303770        3.0421237423
  C         4.3556518276        9.1090691343        1.4395007487
  H        12.3639627624       -1.5933597678       -2.7408821125
  C        12.9508963978       -0.0423453799       -4.0592703894
  H         5.1912547230        8.3956385836       21.7427569253
  H         5.8550391758        9.9513330385       20.8978574957
  C         7.2855991974        8.6522044434       21.9734412831
  H        19.1423253029        5.4454822646        7.7049202582
  H        18.3908650156        6.8760353181        7.4483281861
  C        19.2334166327        5.9115193872        5.5967374027
  H         5.3393602115        9.2713582822        1.1478101679
  H         3.8505703304        8.8386164249        0.4981620479
  C         3.6189185537       10.2740174262        2.1422461604
  S        13.3609377634        1.5189652226       -4.4980327182
  C        13.1863533354       -1.1406940780       -5.0538889549
  H         8.0129025013        7.8530188267       21.6663816742
  H         7.0529215444        8.3636563009       22.9733127773
  H         7.9575222442        9.4564118739       21.9293965112
  H        19.5444855953        4.8902417097        5.3897920184
  H        18.6974524080        6.1804897549        4.7521681551
  H        20.1469733177        6.4469713636        5.4969349837
  H         2.5519191325       10.1011853680        2.0756082076
  H         3.9748436150       10.3781766344        3.2039398239
  H         3.9375985395       11.2213913786        1.5905768123
  C        13.8323317834        0.8067117617       -6.0857649532
  N        13.7364308236       -0.5379921563       -6.1300837482
  O        12.9958961601       -2.3516310830       -4.8896934859
  S        14.2423874100        1.6578873761       -7.5417446464
  C        13.8572619554       -1.2691402037       -7.3625521019
  H        14.2591028193       -2.2610967856       -7.1309975609
  H        14.6699730329       -0.7642069258       -7.9734684990
  C        12.5872445493       -1.4444102573       -8.2266718459
  H        11.6514763925       -1.1597752125       -7.7520616195
  H        12.3939474949       -2.5018288863       -8.6084828744
  H        12.6821316481       -0.8672348931       -9.1238590902
  H        -4.1822155068       14.5891687101       16.7619191634
  C        -3.4040851782       13.7946247395       16.5303692402
  H        -4.0180587185       12.8742985765       16.6492956128
  C        -2.0956904225       13.7109281640       17.3769010214
  C        -2.9973878672       13.7734293367       15.1010631296
  C        -2.2563319524       14.1259305409       18.8054308657
  H        -1.7716436329       12.6946298038       17.2520939754
  H        -1.3370831450       14.4795933257       17.0765121583
  H        -3.9268208241       13.7600337963       14.5630604935
  H        -2.4201100497       14.6504945536       14.8331476102
  H        -2.4694591866       12.8065566368       14.8322778054
  C        -2.2697866292       12.9180773832       19.8089433457
  H        -3.2100581615       14.6789450718       18.9302673836
  H        -1.4840157574       14.7713373973       18.9913746001
  C        -2.4431002546       13.2890817700       21.2749253129
  H        -3.0029195330       12.1309404339       19.5930643385
  H        -1.2956768287       12.3721132067       19.7328087128
  C        -1.5346341739       12.6052780980       22.2999196731
  H        -3.4685872894       12.9519653841       21.5484365887
  H        -2.2916886431       14.3280038761       21.4176086262
  C        -0.2702366540       13.4146675362       22.4032608985
  H        -1.9859437741       12.4855634227       23.2317803695
  H        -1.3914857554       11.6052717345       21.9457988521
  C         0.8985104574       12.7442345186       23.1274660814
  H         0.0851365384       13.7157195437       21.4699193201
  H        -0.5904465830       14.3985870518       22.7932079690
  C         1.2589974288       11.3167512896       22.5467949299
  C         0.4913473057       12.1654347099       24.4413407796
  C         2.1418452463       13.6353931932       23.3753457156
  C         1.1002058252       10.2563312355       23.4237353236
  C         1.8440750506       10.8839659498       21.3569130024
  C         0.6205744048       10.8219842060       24.6008364542
  C        -0.0541696320       12.8132344616       25.5213475730
  H         2.4659042830       14.0889073560       22.4508681175
  H         1.8221607573       14.5360009436       24.0217069897
  C         3.2617388886       12.8951732561       24.0990371318
  S         1.4421859847        8.7306752378       22.7670323513
  C         1.9579017369        9.5112618583       21.3126602183
  H         2.0014165755       11.6326158137       20.6323944123
  C         0.2085633262       10.3326183463       25.8334340204
  H        -0.0871596918       13.8727161446       25.2629844276
  C        -0.4004253304       12.3240576142       26.7438657214
  H         3.5431869804       11.9427892905       23.6262667432
  H         3.0094178402       12.5861015804       25.0914610599
  C         4.4939068341       13.8153816238       24.2686766742
  C         2.4089613432        8.7284799430       20.1305693379
  C        -0.2895891869       11.0132785638       26.9253211277
  H         0.1743948099        9.2219449105       25.9020715689
  C        -0.7658315916       12.8043767337       28.0026243896
  H         5.2602520583       13.2279194382       24.8016229052
  H         4.1895320306       14.6124959637       24.8924906766
  C         5.2251158408       14.1836107343       22.9649613618
  C         2.3945035719        7.3211947047       19.8948234764
  C         3.0608358992        9.5597676546       19.0125496951
  C        -0.7773668905       10.3984961143       28.2550943454
  C        -0.9076576610       11.7603622688       28.8887837286
  S        -0.9916659126       14.4164318787       28.6363934391
  H         6.2188446563       14.5656694023       23.2512280366
  H         4.6585783125       14.8721597614       22.3954404186
  C         5.5552168361       12.9954706449       22.0877838875
  N         1.9038333569        6.3840292881       20.8139729831
  C         2.9324695487        6.7691277463       18.7771522823
  C         3.3869267843        8.9918279089       17.7930304251
  H         3.1399907588       10.5459599572       19.2666777458
  C         0.2949919932        9.5226176785       28.9824468936
  C        -2.1221274089        9.6502437656       28.1972989613
  C        -1.2235916993       12.3199521518       30.1693882722
  C        -1.2352625614       13.7000512740       30.1458675393
  H         6.6157545661       12.6860660009       22.3839599232
  H         4.8894964630       12.1453347868       22.1308594473
  C         5.7346426022       13.4120219802       20.5580425253
  S         2.2612179060        4.9041650235       20.2288105581
  N         2.8277083145        5.3732212937       18.8095295893
  C         3.2849518045        7.5482722223       17.6073528680
  H         3.8830336343        9.6530800100       17.0810685021
  H         0.5044792423        8.6655553874       28.3537448673
  H        -0.0778779184        9.2318356479       30.0017805857
  C         1.5724637953       10.2590636482       29.3036052208
  H        -2.1360652814        8.7003977116       27.6222757004
  H        -2.4085681962        9.2572553729       29.1334159856
  C        -3.3037435293       10.5235635233       27.6401891378
  H        -1.5050302619       11.6934763109       31.0160266229
  C        -1.6315631639       14.4869474873       31.3472440968
  H         5.2306024348       14.3204093969       20.3220087935
  H         5.3840920846       12.5460186349       19.9171253237
  C         7.2079819348       13.7416289675       20.3149263290
  C         3.4030155167        6.8293534192       16.3881508531
  H         1.8374323543       10.8987415756       28.4261116370
  H         1.3634058423       11.0356567638       30.0831890755
  C         2.7294162568        9.3659824988       29.6982328504
  H        -3.1720336523       10.8498934954       26.5729257087
  H        -3.4639650698       11.4454625738       28.1856375373
  C        -4.6902533928        9.8051735898       27.7063567478
  C        -1.6159544343       15.9165600599       31.4374747681
  C        -1.9318551271       13.8016773297       32.6216034143
  H         7.6226311009       14.5192500083       20.9794152641
  H         7.7853180495       12.8567782780       20.5391641757
  C         7.5405678835       13.9661517268       18.8406125906
  H         3.3065701086        5.7772645128       16.4741381398
  C         3.6700673182        7.1732336377       15.0767732912
  H         3.0518161816        8.8192301004       28.8781547852
  H         2.2305628717        8.7089786343       30.3617167462
  C         3.9636534136       10.1245514958       30.2837640613
  H        -4.7821399619        8.9691755344       26.9798299751
  H        -4.8286269994        9.3626185215       28.7238051094
  C        -5.8060464271       10.8501996220       27.5702050247
  N        -1.3506521337       16.8485173931       30.4358948232
  C        -2.0164981234       16.5426700523       32.6405310632
  C        -2.1562983988       14.4735206968       33.7898709607
  H        -1.7748348111       12.7218911579       32.7069235058
  H         8.5155220224       14.3409861617       18.6796001118
  H         7.3726098014       13.2181912880       18.0440551251
  H         6.9660503716       14.8068406859       18.4559750260
  S         3.8465014434        8.8237448249       14.4206695637
  C         3.7794997054        6.0624792944       14.0168829127
  H         4.0606247216       11.0151453620       29.6664129931
  H         3.8600728916       10.4737563142       31.3553303211
  C         5.2006727679        9.1903496378       30.1893401085
  H        -5.6584563891       11.6351358550       26.7943300845
  H        -5.8456201443       11.3777437371       28.5160345047
  C        -7.2304963121       10.3577481447       27.2550508272
  S        -1.2978955615       18.2913186169       31.1086688633
  N        -1.9369146335       17.9505966791       32.5620790815
  C        -2.3434948745       15.9312341385       33.8807662531
  H        -2.2491417926       13.9481242247       34.6697969781
  C         4.1013791954        8.0399484130       12.8993929797
  N         3.9410516545        6.6958657835       12.8255871989
  O         3.4049999073        4.8935874454       14.1378167157
  H         6.0599847374        9.7169330060       30.5379069771
  H         5.2902427445        8.7793488068       29.1950828917
  C         5.0820277264        8.0137571466       31.1413788217
  H        -7.3533670696        9.3127225444       27.5284161216
  H        -7.8009547493       10.8579646675       27.9729165151
  C        -7.6807541057       10.5389910175       25.7483344570
  C        -2.7087317672       16.7457112544       35.0188280410
  S         4.3523642462        8.8399828932       11.4581553252
  C         3.7382477319        5.9382572605       11.6355723147
  H         4.8190431512        8.3978450598       32.1064760887
  H         4.3145710168        7.3222833060       30.7174913482
  C         6.3775885015        7.1760986758       31.2940947842
  H        -6.8447231556       10.0708532525       25.1368301736
  H        -7.5677953737       11.5193691321       25.5258705907
  C        -9.0559208195       10.0038860206       25.4143498380
  H        -2.4059531891       17.7642671167       34.9113244076
  C        -3.1837360097       16.4497569134       36.2654121862
  H         4.3186927875        6.2607425204       10.8215087816
  H         3.9806990269        4.9183004794       11.7469338058
  C         2.1759143316        5.9077640782       11.3952913284
  H         6.4193080703        6.8206967863       32.3581901864
  H         7.2202390082        7.8594791099       31.1755896802
  C         6.3642671477        5.9274714494       30.3394797487
  H        -9.3454719072       10.3869069798       24.4550686938
  H        -9.0446925455        8.9609793704       25.2006296308
  C       -10.1052530952       10.0476097779       26.5214925874
  S        -3.6621895390       14.9303780034       36.9353430120
  C        -3.1288188954       17.5763355460       37.2330715816
  H         1.9594329219        6.2415475105       10.3816956419
  H         1.7367310836        4.9995108022       11.7428113188
  H         1.6940943362        6.6547688625       12.0589800113
  H         7.3895347557        5.5896925874       30.2255069484
  H         6.0099340339        6.3217475245       29.4405345285
  H         5.6439392779        5.2184896209       30.6343040627
  H        -9.7944107836        9.5553152714       27.3924157168
  H       -11.1415840216        9.8721884314       26.3063656514
  H       -10.1271384445       11.1236077235       26.7131645238
  C        -3.9771006600       15.8092784821       38.4353528719
  N        -3.6962723574       17.1271324004       38.3650049143
  O        -2.8250058544       18.7343300631       36.9861985215
  S        -4.6252829982       15.3186282504       40.0135443931
  C        -3.7103956715       17.9803535122       39.4707991882
  H        -3.7826158219       19.0168206160       39.0942637806
  H        -4.5633745510       17.7518378900       40.0753416110
  C        -2.3915811894       17.8562683925       40.3462271658
  H        -1.4575176092       17.8234624839       39.6851164633
  H        -2.3005483538       18.7549104095       40.9566871443
  H        -2.4851617996       16.9125554956       40.9593502755
