352
i=
  H         3.4270852911        3.9322181867       12.1121748620
  C         2.7978206046        2.9925817643       12.2784409170
  H         1.6692867748        3.2505104480       12.0950584555
  C         3.1633153282        1.9711385507       11.2121408944
  C         2.9821135547        2.5489836029       13.7485632944
  C         4.0040942695        2.5890678053       10.0720667134
  H         2.2400921171        1.5699274400       10.7558640177
  H         3.7426523312        1.1109878343       11.5983939453
  H         2.7603091368        1.4971887345       13.7882917740
  H         2.3017799559        3.1555859298       14.3687336703
  H         4.0397910151        2.5820598501       14.1077594920
  C         4.6679701182        1.4528203305        9.1842057433
  H         3.4748223292        3.2539959166        9.4810202133
  H         4.7151628971        3.3569552669       10.5186470072
  C         5.4548442889        1.9609916460        7.9873724926
  H         3.9289256164        0.7520474036        8.7838026613
  H         5.2727162649        0.7479529556        9.7097024633
  C         6.7061313114        2.8324683703        8.2336512943
  H         4.7806130371        2.4877582974        7.2343730518
  H         5.8728454844        1.0735520141        7.5067558037
  C         7.7863794698        2.0717052053        8.9947773005
  H         6.9519569103        3.1734761507        7.2321965284
  H         6.4554431167        3.7276624280        8.7457839126
  C         9.1389178044        2.8156628182        9.2089178708
  H         8.1438848021        1.2560194053        8.3199619623
  H         7.3994957616        1.5926086731        9.8995948987
  C         8.7930659972        4.1445061420        9.9090846523
  C         9.5719827810        3.4377210644        7.9232794739
  C        10.2853369170        1.9284198222        9.8169133626
  C         9.0266246273        5.2020577452        9.0970237083
  C         8.3511630782        4.4495813231       11.1978223495
  C         9.4854723668        4.7930240512        7.8458877435
  C        10.0594663405        2.8203514015        6.8223009969
  H         9.8968591318        1.4372304212       10.7962030017
  H        10.5453026593        1.0317471792        9.2735198227
  C        11.5234458505        2.8118298053       10.0776712034
  S         8.5652214249        6.6485679455        9.7882565936
  C         8.1567338536        5.8055634426       11.2832393596
  H         8.2666982436        3.6424012972       11.8905527890
  C         9.9208673208        5.3451264025        6.6436174461
  H        10.0995051920        1.7760647864        6.8330622332
  C        10.3413531198        3.3344796858        5.6305007144
  H        11.2275723597        3.7489709419       10.4601123322
  H        12.1378699859        2.9601985090        9.1749407387
  C        12.5430776430        2.2709624487       11.0751689308
  C         7.6292420544        6.5374031282       12.4846220413
  C        10.2904170899        4.7035965393        5.4719402357
  H        10.0137836397        6.4067903120        6.6910145058
  C        10.7164879844        2.9285509510        4.3779278986
  H        13.3400813588        3.0298400390       11.0467904562
  H        12.8255096473        1.2650225878       10.7151602041
  C        11.9721919047        2.3146128948       12.4886844513
  C         7.6677630710        7.9378621848       12.6602956408
  C         7.0315528651        5.7686710501       13.5535395767
  C        10.6937097003        5.3738013101        4.2595501396
  C        10.9432504818        4.0075191569        3.5747236017
  S        11.0065774547        1.4313963033        3.5786765096
  H        11.2355537703        3.0641264365       12.6125008940
  H        11.3814061109        1.4270868039       12.7860679325
  C        13.0957292204        2.5790739758       13.5481532955
  N         8.1112862718        8.8266108853       11.6886211651
  C         7.4654281764        8.4890723644       13.8885427179
  C         6.6897345219        6.3816930260       14.8345483770
  H         6.9380747703        4.7658594844       13.4002618888
  C        12.1133183566        6.0900192279        4.3606836338
  C         9.6604697058        6.1294256420        3.5049674761
  C        11.2805339050        3.6289455615        2.2669405561
  C        11.4331958288        2.2689862888        2.2050694955
  H        13.5836950813        3.5134144917       13.3181188576
  H        13.8370255891        1.7855848327       13.5489748716
  C        12.4331215150        2.5749613581       14.9337260796
  S         7.9720562849       10.3238221569       12.2873800582
  N         7.7519649891        9.8544093356       13.8373470703
  C         6.9901850556        7.7993996135       15.0227122893
  H         6.3453559949        5.8112363295       15.6681637482
  H        12.0417556609        7.1348461694        4.7920684783
  H        12.4891706111        6.1614252495        3.3565043645
  C        13.1374982587        5.2552361208        5.1085950142
  H         9.4712968765        7.0889436259        4.0107240963
  H        10.2356751073        6.3181863512        2.6479757211
  C         8.4135734284        5.3506745299        3.0952148386
  H        11.3935743808        4.3574925030        1.4609301567
  C        11.7307868918        1.4745888599        0.9286035824
  H        11.8254142322        3.4208128124       15.0258629262
  H        11.7260122115        1.7239783723       14.9184511024
  C        13.4572569985        2.4155954162       16.1625343318
  C         6.6989497310        8.5545409264       16.2485783991
  H        12.6701247590        4.9725869568        6.0712290307
  H        13.3063164274        4.3528931846        4.5774277807
  C        14.4725316292        6.1401487431        5.3139051630
  H         7.9639179884        4.8377180767        3.9677294204
  H         8.6279733579        4.5004289401        2.4083400170
  C         7.3513630603        6.3149311251        2.4637339934
  C        11.8783810800        0.0900897231        0.8086314607
  C        11.9096757582        2.2862561072       -0.2723002676
  H        14.3267459121        3.0161036542       15.9030277690
  H        13.8020146861        1.3329227131       16.3259871771
  C        12.7658372468        3.0982001468       17.3220916973
  H         6.8752183037        9.5946202647       16.1485326113
  C         6.4173590869        8.1812505063       17.5537095681
  H        14.2452584914        6.7872893659        6.1622878358
  H        14.6369774075        6.8230839657        4.4939918820
  C        15.6677377661        5.3235376802        5.8684476161
  H         7.0808329001        7.0969442687        3.1518709506
  H         7.7418096510        6.7952251466        1.5557092445
  C         6.0876721930        5.5951194675        2.0386455004
  N        11.7062297959       -0.8445982881        1.8160962429
  C        12.0812157500       -0.4981850282       -0.4116977434
  C        12.2244435718        1.6636945597       -1.4472859699
  H        11.7692945993        3.3190081403       -0.2537175277
  H        11.9512218455        3.7941269758       17.0873454191
  H        13.5816365324        3.6788879413       17.9268221262
  H        12.3777634492        2.5450420452       18.0834993033
  S         6.1922336466        6.5828515371       18.1148822513
  C         6.4431619601        9.1948500994       18.6446129297
  H        15.1455943927        4.7836678753        6.6203386995
  H        16.0918069156        4.7290543501        5.0237285519
  C        16.8792134992        6.2430509346        6.4096310255
  H         5.6647628702        5.1833300268        2.9446983970
  H         6.2349602738        4.6641312464        1.4488156254
  C         5.0700076220        6.5765639404        1.3319467882
  S        11.6952037633       -2.3327851785        1.1462808547
  N        12.1315938062       -1.9264170879       -0.3920590622
  C        12.3657143040        0.2289044088       -1.5701176781
  H        12.2689527917        2.3145858934       -2.3065667775
  C         6.0479355144        7.2249431732       19.7150617206
  N         6.0890023446        8.6020873567       19.8038498559
  O         6.6008328157       10.4128984676       18.5413536005
  H        16.9326465052        7.0956182697        5.7832863288
  H        16.5209629419        6.6771989941        7.3452309949
  C        18.1620972389        5.4790998240        6.5592341545
  H         5.5536416005        7.1540053681        0.5941438406
  H         4.2946139739        6.0688434516        0.7387803080
  C         4.4299823635        7.5583742325        2.2895303365
  C        12.5920253807       -0.4691396362       -2.8310101744
  S         5.6793973675        6.3204000320       21.2184173943
  C         5.9547603015        9.3051969218       21.0595067371
  H        17.9214001217        4.4578426107        6.9415855429
  H        18.6048469762        5.3921409220        5.5634244132
  C        19.2244427388        6.1708294525        7.4212435107
  H         5.0978551275        7.9818319941        3.0211117242
  H         3.6297422173        7.0798268261        2.8153884122
  C         3.6244102249        8.6538535641        1.6068682377
  H        12.5479553783       -1.5463113719       -2.7869789360
  C        13.1523503342       -0.0755318303       -4.0022603213
  H         5.1342193281        8.8806308339       21.6051284248
  H         5.5387097602       10.1920151030       20.6212619513
  C         7.2690592250        9.1657645210       21.8955446602
  H        19.3643765834        5.7314530159        8.3983640901
  H        18.8237823458        7.1880149071        7.5712324781
  C        20.5322903160        6.0971014896        6.5909247159
  H         3.2080705871        8.3839546928        0.6634201869
  H         2.7964891553        8.7378566672        2.2586405991
  C         4.4854389277        9.9282876348        1.4090184038
  S        13.5551269375        1.5636769181       -4.4652622448
  C        13.2933685827       -1.0440502183       -5.1424358669
  H         7.0407675761        9.3993692526       22.9651650657
  H         8.1368995746        9.7950525850       21.5396504915
  H         7.6342801687        8.1234111688       21.7955685313
  H        20.9098077544        5.0259901412        6.3496670093
  H        20.4618454795        6.7111622970        5.6501314310
  H        21.3623539235        6.5658513577        7.1471894224
  H         5.2310028131        9.9286797485        2.1498955314
  H         4.9287936386        9.7456391759        0.4032084944
  H         3.8526188675       10.7721556809        1.5162023954
  C        14.1471512977        0.8674634410       -5.9733871032
  N        13.9358667168       -0.4620755675       -6.1395345212
  O        13.0083202186       -2.2078752213       -5.1149829523
  S        15.0266330020        1.7743963622       -7.2013530966
  C        14.2864789551       -1.2079166051       -7.3728014527
  H        14.4873324547       -2.2165782304       -7.1358726042
  H        15.2769850858       -0.8298184183       -7.5975018733
  C        13.1986156449       -0.9854519239       -8.4433210570
  H        13.2503583062       -1.7714279807       -9.1523082330
  H        13.3641765165       -0.0475948406       -8.8596181464
  H        12.2399883992       -1.0687308093       -7.8995329911
  H        -4.1162433633       14.4554366534       16.2364455663
  C        -3.6967906681       13.4621993371       16.2052334632
  H        -4.5754345348       12.8844020423       16.5285537218
  C        -2.5817760913       13.3520140056       17.2423668948
  C        -3.3205964336       12.9428407000       14.8251054532
  C        -3.0355707308       13.5237211014       18.7283576669
  H        -2.1076043504       12.3832365399       17.1312460454
  H        -1.7263459538       13.9608312571       16.9674001696
  H        -3.3058397324       11.8113358498       14.7718728083
  H        -4.0415693855       13.2615447811       14.1132356713
  H        -2.3487957355       13.2364029156       14.5654984117
  C        -1.8735907883       13.1485193828       19.7165842290
  H        -3.8344024217       12.8791398257       18.9809250973
  H        -3.4188677364       14.5637947312       18.8404063206
  C        -2.3196547593       13.2064521018       21.1513733517
  H        -1.6368195761       12.1581516147       19.4698635134
  H        -0.9852046676       13.8197380468       19.6154219952
  C        -1.2656605839       12.7361621832       22.1374849573
  H        -3.2492082704       12.6398759094       21.1818860820
  H        -2.6794654783       14.1714110994       21.4520829643
  C        -0.1593370368       13.7229062108       22.6656318419
  H        -1.7371675991       12.3699784532       22.9728707097
  H        -0.8202026068       11.7950844884       21.8213291044
  C         1.0730739867       13.1968627533       23.3941761932
  H         0.2970853554       14.3538630681       21.8534144555
  H        -0.5880313378       14.4682092182       23.3467918571
  C         1.4722588365       11.9034926828       22.6820608343
  C         0.6556447830       12.3944660510       24.5810636458
  C         2.2128171079       14.2284062498       23.6995916546
  C         1.3356352164       10.7314936385       23.4384092287
  C         2.0046942936       11.6620035036       21.4106371354
  C         0.7444831223       11.0221489230       24.6713010080
  C         0.1804396724       13.0029816887       25.7064215192
  H         2.4587417846       14.8816672388       22.8130876668
  H         1.9321431698       14.7936745734       24.5613977582
  C         3.4419986003       13.5425208109       24.2297045204
  S         2.0141885238        9.3179809620       22.6799196213
  C         2.2413165727       10.2873641073       21.2710491395
  H         2.1223113549       12.4976410987       20.6701732844
  C         0.3058636673       10.4046234322       25.7734193913
  H         0.0892538106       14.0623881587       25.7491496351
  C        -0.2874530601       12.3437161257       26.8447616914
  H         3.7462881850       12.7509928848       23.5724651093
  H         3.2405288626       13.1561307850       25.2040749802
  C         4.7224395148       14.4717107371       24.3339944649
  C         2.5550832434        9.7171684185       19.9492442013
  C        -0.1971875333       11.0577862555       26.9004813537
  H         0.4934627241        9.2828638201       25.8460510891
  C        -0.6896896890       12.7315208349       28.0656805454
  H         5.3247502833       13.9972569841       25.0366063443
  H         4.4486485792       15.4586605035       24.7655865697
  C         5.4085940378       14.8756922758       23.0342208344
  C         2.6272526368        8.3158236530       19.6025690987
  C         2.9851759100       10.6430776282       18.8619616674
  C        -0.6917373877       10.2844741961       28.0606327344
  C        -1.0442442566       11.5887555285       28.8024516455
  S        -0.9362781738       14.1997577089       28.8458798289
  H         5.9269275988       15.8450602351       23.1977799658
  H         4.6469185891       14.9709519684       22.2810680570
  C         6.4303488842       13.8449589061       22.5531383911
  N         2.3571103702        7.3296986767       20.5462963455
  C         2.8286341749        7.8240364330       18.3575805815
  C         3.1887850933       10.1802641978       17.5530478414
  H         3.3058060199       11.6986511360       19.1425200927
  C         0.4569872472        9.5409722347       28.8785705993
  C        -1.8888924019        9.3104523576       27.8674114883
  C        -1.4659212307       11.9324066872       30.1064078947
  C        -1.4348417007       13.3171856732       30.2351499083
  H         7.4491883324       14.3458386329       22.4055575948
  H         6.6613553492       13.2306682728       23.3803928996
  C         5.9102466976       13.2074650222       21.2655808931
  S         2.2465135103        5.9513357096       19.7462852694
  N         2.6532846793        6.4532609568       18.2775153879
  C         3.0703851955        8.6733480223       17.2431977942
  H         3.4980588794       10.8699826861       16.7829086591
  H         0.6810188547        8.7019706075       28.2410460643
  H        -0.0282401834        9.0714455202       29.7252559486
  C         1.6493669084       10.3178518378       29.2910108719
  H        -1.6836169525        8.3922431915       27.4250701428
  H        -2.2692784879        9.1915896949       28.8765879906
  C        -3.0131896634       10.0320723580       27.1862823631
  H        -1.7079465627       11.1440436913       30.7481040708
  C        -1.6728321118       14.1000453923       31.5058002486
  H         4.8840294807       12.8732395958       21.4404683063
  H         6.3893070357       12.3040205542       21.0502125483
  C         5.9766331941       14.1000387271       20.0114652402
  C         3.3030113827        8.0537073916       15.9348260740
  H         1.9869736509       10.9056669608       28.4693602669
  H         1.5500050566       10.8993345474       30.1492215415
  C         2.8511284201        9.3571311927       29.6036687609
  H        -2.7973294357       10.3535875279       26.1738255914
  H        -3.1572755694       10.9579605642       27.7113266884
  C        -4.3262527323        9.2282330449       27.2989315217
  C        -1.7256798818       15.4804980081       31.6968290753
  C        -1.9519181359       13.2854007429       32.7253049192
  H         5.0940999345       13.9779189904       19.3816770035
  H         5.9974070889       15.0762243400       20.3266052865
  C         7.1359741029       13.6748268972       19.1213007533
  H         3.1555897256        6.9735217890       15.9565468740
  C         3.7223461260        8.3951648594       14.6882889977
  H         2.9578138315        8.6392044898       28.8199048389
  H         2.6108786747        8.6598733258       30.3947888691
  C         4.1058172188       10.1500471170       29.9655499292
  H        -4.2485188502        8.5006717810       26.4666758678
  H        -4.3500167125        8.6577652296       28.2328983044
  C        -5.5405440733       10.0735368437       27.0611656047
  N        -1.3634778152       16.3662154574       30.7097545407
  C        -1.9380496991       16.0394571404       32.9528784394
  C        -2.1053210479       13.8077197360       33.9840826900
  H        -1.8764546614       12.1987937734       32.6414694583
  H         6.7821322831       12.9191838527       18.3902084756
  H         7.4145408891       14.5522715738       18.5127653007
  H         7.9821888475       13.1349681760       19.5479676328
  S         4.2072832212        9.9837658815       14.2090993048
  C         3.5622686677        7.4526801437       13.5890055621
  H         4.3071037228       10.8134457861       29.1033205377
  H         3.9975371532       10.9427842596       30.6991848875
  C         5.3174004465        9.2058986350       30.0306041467
  H        -5.2848186201       11.0643045930       26.6309902383
  H        -6.0079865702       10.1835877578       28.0415376163
  C        -6.5872461916        9.4503493866       26.2404022999
  S        -1.7425630784       17.8185436941       31.3316649352
  N        -2.0932132875       17.4109321298       32.7983684393
  C        -2.2121113895       15.2693317672       34.1416093978
  H        -2.2048935649       13.2217323045       34.8540961177
  C         4.2267719840        9.3060848321       12.6164269152
  N         3.9632794258        8.0360121735       12.4511303789
  O         3.1808281194        6.3139448790       13.7183626374
  H         6.1840820992        9.8375575338       30.0199023087
  H         5.4156208546        8.6469102204       29.1172871747
  C         5.3144708646        8.1943445680       31.2456201404
  H        -6.0026512653        8.9696282811       25.4835709513
  H        -7.1209530509        8.6506064509       26.7046945321
  C        -7.5133422171       10.5406696445       25.6271532520
  C        -2.4543715857       15.9945301876       35.3304862503
  S         4.6740414112       10.2496412514       11.2511858837
  C         4.0792264893        7.2750525729       11.1659072508
  H         5.7413228326        8.7695586213       32.0812545067
  H         4.3003544292        8.0363071352       31.6360250313
  C         6.0917038145        6.8977769919       30.9049526168
  H        -7.0997991683       11.1449769691       24.7797080599
  H        -7.6530645457       11.3562207755       26.3972113887
  C        -8.8261809185        9.9305545412       25.1195442740
  H        -2.0904903959       17.0167337901       35.2256681272
  C        -2.9723928647       15.6510176045       36.5710861434
  H         4.7803149790        7.7610975144       10.4944970576
  H         4.6000314267        6.3221896541       11.4365191320
  C         2.7281857481        6.9472702926       10.4806501915
  H         7.1774603495        7.0313440211       30.9579470590
  H         5.7737795552        6.8098073504       29.9156236698
  C         5.6440854537        5.6754937427       31.7463994286
  H        -9.2055917725       10.5443789527       24.2573661145
  H        -8.7083085606        8.9416034971       24.7570643794
  C       -10.0416150148        9.9457400229       26.0677735670
  S        -3.5793975330       14.0927653003       37.0511818456
  C        -3.0414263195       16.7003773588       37.6451258010
  H         2.8190987516        7.0844598619        9.4001820300
  H         2.3722770734        5.9107781875       10.7915753824
  H         2.1158732584        7.7860751749       10.8274159547
  H         5.4906028405        6.0521008017       32.8073223089
  H         6.3754207918        4.8978885390       31.7448919403
  H         4.7186167506        5.2471365203       31.3368099948
  H       -10.7563191327        9.3982659630       25.4630379579
  H       -10.5404656193       10.8455768760       26.2589819204
  H        -9.7044545649        9.5202030217       27.0104104344
  C        -3.9302694457       14.8909497516       38.6169390743
  N        -3.6459308572       16.1761495965       38.7249171201
  O        -2.6628992670       17.8770074083       37.4906474567
  S        -4.3955173969       13.9496199666       40.0556937708
  C        -3.8267818108       17.1019594366       39.8840763581
  H        -4.2585401788       18.0260231558       39.5078589538
  H        -4.5639736965       16.6428798720       40.5360660627
  C        -2.4152553952       17.3879738522       40.4618876687
  H        -2.1022048535       18.3855698747       40.7614719998
  H        -2.3456929170       16.9052090439       41.4255671733
  H        -1.5726619150       16.9208503386       39.8936378215
