352
i=
  H         5.5554928793        1.7043413045       12.9139052007
  C         4.7214441574        2.3894318140       13.1212907654
  H         5.2373654398        3.2930339474       13.2684537676
  C         3.6494475295        2.5272500433       12.0136656150
  C         4.0324731209        2.0170263185       14.4256198261
  C         4.2226952220        2.9140499754       10.5931369620
  H         3.0088238632        3.4229357685       12.2336959291
  H         3.0979589249        1.5501591665       11.9733360874
  H         3.6463306422        1.0179425534       14.4911496585
  H         3.1423446714        2.6801351700       14.5702480951
  H         4.6473408445        2.3473757213       15.2847323486
  C         4.5260089254        1.6348890992        9.7653227967
  H         3.5516122241        3.6786853827       10.1358061830
  H         5.1110696035        3.5568286779       10.7536312284
  C         5.2865292213        1.9173619583        8.4130174074
  H         3.6758114709        0.9598504771        9.6230757445
  H         5.0985049351        0.9696624939       10.3925415755
  C         6.5907095730        2.6998730007        8.5752854259
  H         4.5692449936        2.2549194986        7.6357268587
  H         5.4734504115        0.8760250598        8.1242522383
  C         7.7532048175        1.8966804129        9.2351147922
  H         6.8681684836        3.0416129416        7.6046581590
  H         6.4171427267        3.6332098559        9.1477130309
  C         9.1010178943        2.6930810743        9.3565027751
  H         7.9651459425        0.9538866183        8.6344355893
  H         7.6220395861        1.4675620514       10.2329331287
  C         8.7191671749        4.0578679224       10.0010535510
  C         9.4923631710        3.3619372665        8.0785928242
  C        10.2947253198        1.9800874347       10.1605112039
  C         8.8528357230        5.1394686492        9.1427457374
  C         8.3219471846        4.4746093050       11.2281945259
  C         9.3955654416        4.7013934430        7.9327460858
  C         9.9324940130        2.7429495735        6.8967190461
  H         9.9912048339        1.6402920077       11.1249096144
  H        10.6951671483        1.0410128946        9.6432060077
  C        11.5074097302        2.8840535218       10.3910880844
  S         8.4233895617        6.6443598361        9.7533166910
  C         8.0629790665        5.8771526570       11.2362430571
  H         8.1422892290        3.7065836632       11.9283618384
  C         9.8359222462        5.2835453789        6.7734258954
  H        10.1350988703        1.6683048650        6.9647190575
  C        10.3258960728        3.3154761410        5.7256955978
  H        11.2851684803        3.8281660155       10.8931905748
  H        11.8459499956        3.1281761237        9.4000342836
  C        12.6248534049        2.1990142016       11.2082137656
  C         7.6042525329        6.5275865334       12.4650115682
  C        10.2908215492        4.6437740198        5.6244852092
  H         9.9344750000        6.3451777219        6.7080107868
  C        10.7881922825        2.9436757436        4.5035587086
  H        13.5263425620        2.8308251613       11.1326892408
  H        12.8512165098        1.2168881228       10.8069191313
  C        12.3037699023        2.0507632999       12.7014521312
  C         7.6524881166        7.9149650267       12.7144197278
  C         7.3346183339        5.6607757421       13.6433021465
  C        10.7733750883        5.3921520589        4.4234160009
  C        11.0783738681        4.0535863501        3.7364641533
  S        11.0633972295        1.4741168310        3.6635539916
  H        11.7971172314        2.9631166322       13.0537564266
  H        11.6458653584        1.2492974913       12.8727545410
  C        13.6064406030        1.8426736583       13.4618934250
  N         7.8703136407        8.9338431198       11.7030931622
  C         7.3636844494        8.5195383264       13.9608946132
  C         7.0632675028        6.2301808610       14.8935018302
  H         7.2159006102        4.5799884236       13.6073776458
  C        12.1223736725        6.1398194444        4.4915880288
  C         9.6909931381        6.1240848122        3.6903464484
  C        11.5016707191        3.7178609141        2.4022714053
  C        11.5253362605        2.3482764335        2.2763515456
  H        13.9917899068        2.8822263664       13.4907212331
  H        14.4063849917        1.3741254784       12.8239033694
  C        13.5845417697        1.2482693555       14.8518878757
  S         7.8422021788       10.3821159265       12.4553496171
  N         7.3831801012        9.8634854512       13.8824187802
  C         7.0667920455        7.7482152165       15.1188971550
  H         6.8972667971        5.5871377310       15.7295302941
  H        11.9324422270        7.0231478079        5.0713441382
  H        12.5519166665        6.4626448826        3.5148749992
  C        13.2957925646        5.3891094818        5.1427662057
  H         9.3720475686        7.0111603228        4.3350368187
  H        10.2349425293        6.5408331680        2.8777347425
  C         8.5548297745        5.3119675560        2.9929638958
  H        11.6503775202        4.4315638414        1.6351532990
  C        11.8168508024        1.5650789612        0.9974015454
  H        13.2954099106        0.1758127491       14.7414667025
  H        14.5462158880        1.2651244910       15.2380842440
  C        12.7175460650        2.0880352390       15.7680602327
  C         6.8610131300        8.4441360746       16.3276929468
  H        13.0261736028        4.8181007643        6.0361954645
  H        13.6533324932        4.5795006219        4.5695133639
  C        14.4607420292        6.3038613719        5.3934741798
  H         8.2061486397        4.5964895816        3.7007095191
  H         8.9218686725        4.7962521235        2.1096266341
  C         7.3520527769        6.2192467365        2.4876970457
  C        11.8955452523        0.1612658778        0.8052698174
  C        12.0595510910        2.3229119166       -0.2480213052
  H        11.7893476095        2.4285528702       15.2846466700
  H        13.1754822478        3.0676308123       15.9063225071
  C        12.4792151070        1.4917753807       17.1351791483
  H         6.9872019646        9.5509652721       16.2755929085
  C         6.6240255705        7.9921429925       17.5764596134
  H        14.1963220904        6.9990619838        6.1504650661
  H        14.7961983500        6.8889783729        4.4958012422
  C        15.6988533924        5.4672587494        5.8411373074
  H         6.9031979751        6.6705800107        3.3324131156
  H         7.8294530323        7.1232439238        1.9995359822
  C         6.3178645994        5.5298822979        1.5234842969
  N        11.8147517894       -0.7332373601        1.8903536437
  C        12.1809828985       -0.4508991083       -0.3948645716
  C        12.4187557087        1.6794268014       -1.4269649329
  H        12.2223148933        3.3937874007       -0.2259761320
  H        11.8041107576        2.1225814911       17.7490868996
  H        13.4633763310        1.4079895702       17.4775512147
  H        11.9528664217        0.5452226856       17.0981650959
  S         6.3672057989        6.3798258080       18.0650889586
  C         6.6815849322        8.9179063468       18.7223459676
  H        15.3938946174        4.7817378687        6.6420625739
  H        15.8758527847        4.8797489409        4.9237662527
  C        16.8094264115        6.4465995538        6.2865354021
  H         5.5885994236        4.9310096707        2.1554924836
  H         6.8635566786        4.8691960482        0.8746458206
  C         5.5411884686        6.4767663640        0.6139458954
  S        11.8093764896       -2.1979167865        1.2661684302
  N        12.1744508440       -1.8212536826       -0.2599700592
  C        12.4502385881        0.2150575885       -1.5893499628
  H        12.6878243680        2.2891006658       -2.3100823276
  C         6.0864385264        6.9687437973       19.6599754741
  N         6.3088296225        8.2778845099       19.8568674239
  O         6.9452301771       10.1599167054       18.5501879451
  H        17.0523121598        7.1480767612        5.4904249919
  H        16.5574263840        7.0344060914        7.1669529062
  C        17.9605847114        5.4887434574        6.6890687950
  H         6.1877530406        7.1782675986        0.0633827225
  H         5.1330773248        5.8714885305       -0.2061680573
  C         4.5586938796        7.3993192844        1.3172691640
  C        12.7207709156       -0.5106364286       -2.7927788028
  S         5.5781894532        5.9999852802       21.0090313144
  C         6.1784659099        8.9214948621       21.1434447912
  H        17.5050974592        4.8209319937        7.4278672035
  H        18.1957356544        4.7946522820        5.8794489952
  C        19.2451434474        6.1795743853        7.1846776723
  H         4.8199486546        7.4343164896        2.3519635097
  H         3.5591751907        7.0249212734        1.3173766466
  C         4.5535923046        8.7880553095        0.7376639814
  H        12.6494974694       -1.5388739988       -2.6004923688
  C        13.1496579243       -0.1242161588       -4.0599858989
  H         5.5203740013        8.4089825221       21.9072350366
  H         5.5753650203        9.8479331068       20.8129835234
  C         7.5174868101        9.1073626744       21.8026831059
  H        19.4888950268        5.5934689869        8.0513348521
  H        19.0819872300        7.1681321918        7.5396053574
  C        20.3253293319        6.1987372006        6.1054378330
  H         5.5487575272        9.2489295473        0.7753669142
  H         4.2361775877        8.7070815954       -0.3218358291
  C         3.4876596681        9.8026801108        1.3941929387
  S        13.8007512065        1.4305226507       -4.5630730042
  C        13.3692065245       -1.1902678131       -5.0972952184
  H         8.0741548664       10.0356695966       21.6788114546
  H         8.2044550020        8.2681634655       21.5970790925
  H         7.3573704643        8.9690709369       22.8272902909
  H        21.1677000685        6.6971576962        6.5330657998
  H        20.9178448271        5.2921140057        5.7066290604
  H        19.7593884635        6.6051700663        5.2212381806
  H         3.9208056685       10.8288847759        1.2353662356
  H         2.5122931106        9.9601841515        0.8295373608
  H         3.3057110069        9.7734605993        2.4627791538
  C        14.3544804046        0.6796137723       -6.0222894045
  N        13.9606894897       -0.6327835530       -6.1547000409
  O        12.9943601387       -2.3319403304       -4.9411880337
  S        14.9273740191        1.4211881202       -7.5050412181
  C        14.1009120309       -1.3803628888       -7.3737638757
  H        14.4852039113       -2.3773152414       -7.0537646742
  H        15.0077482877       -1.0254510016       -7.8504946448
  C        12.9340822189       -1.4159522247       -8.2669398177
  H        12.8036636773       -0.4289574338       -8.7533267906
  H        12.0788801307       -1.8055921297       -7.6790599138
  H        13.1287328280       -2.2225223290       -8.9395058357
  H        -3.0865450472       14.8731920413       16.6654334485
  C        -2.8778987155       13.7971630138       16.6862707995
  H        -3.6447683699       13.1782928482       17.1143153916
  C        -1.6463356664       13.5519576556       17.5212479617
  C        -2.5677029423       13.4353718983       15.2168607184
  C        -1.7111960389       14.0001541766       18.9403234994
  H        -1.3727423694       12.5445501510       17.5707153374
  H        -0.8380440646       14.1114192109       16.9683301783
  H        -1.8022888304       12.6072861645       15.2943278936
  H        -3.3552960825       13.1971488074       14.5440185276
  H        -2.0300314811       14.3438691987       14.8146784026
  C        -2.2640158527       12.9573246723       19.8595424535
  H        -2.2816886607       14.9050835123       19.0066161227
  H        -0.7549272189       14.2944063073       19.4368981753
  C        -2.3135758894       13.4818819907       21.3034710964
  H        -3.2537382880       12.7439234043       19.4631850175
  H        -1.6573526937       12.0240251030       19.7892926427
  C        -1.1199325436       12.8930425615       22.1548286473
  H        -3.1853505022       13.1173715800       21.7797597118
  H        -2.3166913027       14.5817562079       21.3950611390
  C         0.1621571969       13.8069315862       22.4350836727
  H        -1.5810344169       12.6836401587       23.1455437443
  H        -0.7782972647       12.0564229889       21.6406234152
  C         1.1963041104       13.1734599641       23.3446230832
  H         0.7123756256       14.0148518080       21.5444670803
  H        -0.1040116553       14.8285887301       22.7146340183
  C         1.5905901466       11.7710665561       22.7024828484
  C         0.7605194432       12.4940184461       24.6424834768
  C         2.4509830179       14.1095072866       23.6584962765
  C         1.4457479042       10.7449295255       23.5956606243
  C         2.0362190164       11.3669093236       21.4491358197
  C         0.8658473839       11.1684991209       24.8031108269
  C         0.2908874854       13.1163698497       25.7974464567
  H         2.7189731105       14.6006894594       22.7599746469
  H         2.1299447433       14.9000017409       24.3690910747
  C         3.7872681501       13.4249853311       24.2529912040
  S         2.0080089913        9.1946437884       22.9685167051
  C         2.2598823630       10.0127456177       21.4336283814
  H         2.0863088173       12.0766485938       20.5988147265
  C         0.4969568591       10.4913940152       25.9361718701
  H         0.1159776496       14.2061137938       25.7114219268
  C        -0.0959074754       12.4529896146       26.9489261627
  H         4.0849245536       12.6801605377       23.5060398417
  H         3.5469411141       12.7672686912       25.1282183374
  C         4.9741328670       14.3776198373       24.5739422653
  C         2.5126641770        9.2771348329       20.1986619046
  C        -0.0485408755       11.0939861459       27.0472558252
  H         0.6584510176        9.4562430797       25.8207713304
  C        -0.5085509943       12.8661280819       28.1499943335
  H         5.5953428610       13.9172721988       25.3112964824
  H         4.6465430366       15.2851046327       25.0732583752
  C         5.6985642100       14.6821600558       23.2622014009
  C         2.4085497460        7.8708133476       19.9895232189
  C         3.0285915998        9.9590167419       19.0388788167
  C        -0.4092851434       10.4964997286       28.3679095091
  C        -0.6820842384       11.8239712014       29.0419609434
  S        -0.8367385381       14.4145875486       28.8162673570
  H         6.2684652235       15.6276990885       23.3899131587
  H         4.9435143956       14.8060511534       22.4958235417
  C         6.6923662977       13.5992837836       22.8822984352
  N         2.0878431082        6.9278754341       20.9746177514
  C         2.7008835888        7.2589993896       18.7719023974
  C         3.4004288522        9.4156132528       17.8286251026
  H         3.3204030464       10.9359558004       19.2352799526
  C         0.6233941274        9.7140265199       29.1709278303
  C        -1.7704104929        9.6947033581       28.1142885890
  C        -1.1267252830       12.2870431437       30.3274165326
  C        -1.2029618404       13.6352634912       30.3579957721
  H         7.6620711076       14.0523133172       22.6615840772
  H         6.7581859307       12.8942309022       23.6950865056
  C         6.2961197800       12.5988720394       21.7480860949
  S         1.9986690727        5.4795656661       20.3163969824
  N         2.4291827318        5.9184957399       18.7929651400
  C         3.1077240229        7.9594367192       17.5708082670
  H         3.7408900981       10.0963810465       17.0960719399
  H         0.7314489728        8.6696575064       28.9266235167
  H         0.1562815296        9.4101517772       30.1031150905
  C         1.9037606121       10.4812427280       29.4845275640
  H        -1.7381698062        8.8903023268       27.4563179513
  H        -2.0077122869        9.3395333470       29.1419731930
  C        -2.9696097528       10.5884930333       27.5804247538
  H        -1.4304688232       11.6190105053       31.1121194669
  C        -1.4152684414       14.4270710127       31.6219217062
  H         5.3165193912       12.1861201293       21.9515080527
  H         6.9760045155       11.7358454912       21.7208730423
  C         6.1230415169       13.3092242482       20.4149066521
  C         3.3569352776        7.2047794882       16.3163509252
  H         2.2964602876       11.0157904527       28.6176416251
  H         1.5614467952       11.1703341745       30.2242811815
  C         2.9377488448        9.6684490054       30.0572790729
  H        -2.7461648471       11.2762007018       26.7542796791
  H        -3.3854252129       11.1618476091       28.3515284554
  C        -4.0763503344        9.6675716442       27.1169093530
  C        -1.6130615780       15.8245281667       31.7534207528
  C        -1.5113486447       13.7194560940       32.8793998370
  H         5.6008153142       12.6166568749       19.7379557160
  H         5.5102028573       14.2011131360       20.4490981259
  C         7.5507474000       13.5464556227       19.8409539911
  H         3.0872952960        6.1562098129       16.4515399538
  C         3.7360337484        7.6124310185       15.0725799583
  H         3.4530219172        9.0190425219       29.2940530925
  H         2.6033165129        9.0677527583       30.8648415395
  C         4.1402955148       10.5604402287       30.6444947554
  H        -3.6527293355        9.0537157517       26.3729056451
  H        -4.3371738923        9.1234891899       27.9938343396
  C        -5.3100215893       10.4808564058       26.6463213627
  N        -1.4925188813       16.7545761124       30.7549432772
  C        -1.8438221053       16.4816725894       32.9239254100
  C        -1.9763374230       14.2921195384       34.0420130150
  H        -1.2709980176       12.6634574151       32.8627952189
  H         7.9453315366       12.6955868149       19.3290876546
  H         7.5385883143       14.3806923171       19.1653108164
  H         8.2597937326       13.6732431980       20.6477051245
  S         4.0614476519        9.2781825988       14.5992021944
  C         3.6785997160        6.6431705942       13.9726720809
  H         4.1386451969       11.5069886052       30.0870721504
  H         3.9627390904       10.8380649718       31.6797833811
  C         5.4722366485        9.8630122856       30.6470843108
  H        -4.9366550949       11.2905003060       26.0760441024
  H        -5.7866487177       11.0087608212       27.4690402012
  C        -6.4670233834        9.6024087656       26.0822974514
  S        -1.4151276100       18.2106604104       31.3926513589
  N        -1.9223995093       17.8829337371       32.8874680554
  C        -2.0344406913       15.7887155471       34.1463807797
  H        -1.9827551464       13.6515080905       34.9263427462
  C         4.1855524897        8.5605359306       12.9860500780
  N         3.9880898195        7.2445329406       12.8705401385
  O         3.4361454191        5.4575841537       14.1620850609
  H         6.2045177279       10.4630543493       31.1403304813
  H         5.9647046999        9.6936920417       29.6325254760
  C         5.5204966914        8.5318651408       31.4259783073
  H        -6.1950450706        8.8343105610       25.3025661654
  H        -6.9972028617        9.2270584163       26.9168736281
  C        -7.3273616560       10.6035960106       25.3127379153
  C        -2.2829387450       16.5818058901       35.3453163670
  S         4.3414871231        9.4869564582       11.5709675638
  C         3.9862077230        6.6271593560       11.5951173797
  H         6.3310845385        8.4892920993       32.1094490497
  H         4.6821214976        8.5343916789       32.1647517028
  C         5.6738544532        7.4181456063       30.5328174641
  H        -6.8113297939       10.9057631335       24.4244975005
  H        -7.5397836178       11.4830382886       25.8220192488
  C        -8.6257490176        9.9003461856       24.8092798636
  H        -1.8051270188       17.5306144604       35.3497531468
  C        -2.8121388967       16.2489795960       36.5532908323
  H         4.8060901061        6.9723214807       10.8961093930
  H         4.1644290739        5.5733268514       11.7448627342
  C         2.7049640735        6.6751311639       10.8479570822
  H         4.7321466623        7.5122256495       29.9011815864
  H         5.6725321031        6.4772406592       31.0678048465
  C         6.9970376531        7.3511865548       29.6595592587
  H        -9.0553236881       10.3006738995       23.9276769166
  H        -8.3291074456        8.8558132809       24.6346328273
  C        -9.6919774942        9.7505936347       25.8528246582
  S        -3.3775430498       14.6748477899       37.0402002053
  C        -2.8505379103       17.2926706878       37.6137913768
  H         2.5005179369        5.7913187209       10.2300729998
  H         1.9180819722        6.8693626915       11.5516966620
  H         2.8130498617        7.4894029544       10.0758424986
  H         7.9550930963        7.7164000940       30.1748164953
  H         6.7683102109        7.8846125525       28.7914455110
  H         7.2446501125        6.2552893345       29.4419795843
  H        -9.4902956232        8.9876041079       26.5987222212
  H       -10.5626465825        9.3580085651       25.3657540444
  H        -9.9531954362       10.6351924347       26.4025991731
  C        -3.6339979356       15.4417035057       38.6236093303
  N        -3.3231921003       16.7785033667       38.7232277722
  O        -2.5740863385       18.5180465924       37.4446275037
  S        -4.1978926035       14.6433751741       40.0256384643
  C        -3.2897218926       17.5655959861       39.9604756835
  H        -3.3043556222       18.6559006363       39.7465185369
  H        -4.1407405030       17.3065355433       40.5599566332
  C        -1.9435904342       17.4185306510       40.6318497257
  H        -1.8390839032       16.4635807958       41.1623304572
  H        -1.1061488368       17.6411766495       39.8671868746
  H        -1.7729008118       18.1036749854       41.4688219071
