352
i=
  H         3.3125218068        3.8243445055       12.9109350949
  C         3.5154155540        2.7162315258       12.7517447713
  H         2.9662849594        2.1882751296       13.6003709771
  C         2.9697944080        2.2940799841       11.3495957488
  C         5.0034007528        2.5414889649       12.9400588447
  C         3.9006031642        2.5618785098       10.1556916811
  H         2.0968187265        2.9171147715       11.1137823223
  H         2.5982341498        1.2967871778       11.3776013248
  H         5.2643921422        2.9535278241       13.9124181936
  H         5.7213055169        3.0418881530       12.2054851576
  H         5.3266626652        1.4961321902       12.8889551468
  C         4.7772534276        1.4839165178        9.5699151308
  H         3.2690877610        2.9949864697        9.3550910247
  H         4.4850148387        3.4549603100       10.3369831428
  C         5.4675855965        2.0176549764        8.2957092455
  H         4.2549201617        0.6007978517        9.2990118314
  H         5.4346933483        1.2276690557       10.3547127331
  C         6.6671638398        2.9335555323        8.5450534626
  H         4.8343529694        2.7291971933        7.7300727863
  H         5.7187666450        1.2342233410        7.5759630505
  C         7.9197358917        2.1488376297        9.0188261033
  H         6.9601597976        3.4632125780        7.6570229958
  H         6.3933594861        3.7791883984        9.3132497525
  C         9.2253624676        2.9671965348        9.1690689862
  H         8.1263393735        1.3832772709        8.2747301847
  H         7.7556150673        1.5288995186        9.8665514404
  C         8.9837912365        4.2702288057        9.8268284370
  C         9.7275425209        3.6234807059        7.9230329202
  C        10.3787962283        2.1448709953        9.8728563356
  C         9.2035674285        5.3980931778        9.0456934453
  C         8.4373195027        4.6284880944       11.0641459925
  C         9.7162538093        4.9935698054        7.8543275736
  C        10.3241396890        2.9829575769        6.8422650810
  H         9.9019106263        1.6042449003       10.7174586080
  H        10.7375661249        1.4362137794        9.1978475820
  C        11.5705406854        3.0023513782       10.2200411981
  S         8.9387215088        6.8450887296        9.8135285029
  C         8.3454282174        6.0032777409       11.1965582169
  H         8.3340646159        3.8685816455       11.8607374337
  C        10.1340895273        5.5683850443        6.6885668088
  H        10.3050835926        1.9419998357        6.9321198596
  C        10.7626974860        3.6026791776        5.7576232556
  H        11.3088614353        3.9208762968       10.7521105859
  H        11.9495895320        3.2706340164        9.2165707633
  C        12.5463180290        2.3655780652       11.1284197469
  C         8.1133977426        6.6836562134       12.5201692763
  C        10.6780676550        4.9254774780        5.5754708706
  H         9.9479500933        6.6371774759        6.6645313204
  C        11.0572399997        3.1199250318        4.4877152249
  H        13.3861782794        3.0147595431       11.0754401990
  H        12.8959134700        1.3647737569       10.8430217606
  C        12.1533515091        2.3658626339       12.6077478161
  C         8.0120657042        8.0592000291       12.7485895844
  C         7.7161949768        5.7430104513       13.6606362413
  C        11.0342952843        5.5299982600        4.2791652655
  C        11.2311670634        4.1571972674        3.5817233410
  S        11.3436126545        1.5467992866        3.8040984331
  H        11.5318939212        3.2579696270       12.8536384937
  H        11.4832097951        1.5640926420       12.7831608391
  C        13.2964827493        2.1761071266       13.6301306781
  N         8.1780798599        8.9639185249       11.7376476087
  C         7.6968241279        8.5976028486       13.9395543599
  C         7.4624064231        6.3259225574       14.9088758531
  H         7.6904731457        4.6973327278       13.6484510050
  C        12.3438103793        6.3695909853        4.5211270293
  C        10.0239464421        6.3076426457        3.5537871555
  C        11.5212442017        3.6927183956        2.2709959150
  C        11.6470159683        2.2882029641        2.2985262706
  H        13.8884783291        3.0966483096       13.5547307615
  H        13.9656433626        1.4045672232       13.3162561121
  C        12.7337401662        1.8655310272       14.9885653303
  S         8.0917263385       10.4950069773       12.3681859316
  N         7.6065423988       10.0321454933       13.9152139963
  C         7.4504843192        7.7904234104       15.0389919892
  H         7.2210366064        5.7160175542       15.7525826011
  H        12.0868074326        7.2049072538        5.1854381975
  H        12.6779346937        6.9232214578        3.6238862218
  C        13.4685761858        5.4664822800        5.0702410288
  H         9.7360766366        7.0300178281        4.3252333802
  H        10.4945516596        6.7331842981        2.6759624739
  C         8.6947205529        5.5206140234        3.1132806639
  H        11.5431443612        4.3994098157        1.4219920188
  C        12.0125323243        1.4366028349        1.0964647560
  H        11.8342831504        2.4140301332       15.2461150074
  H        12.4978967958        0.8193859337       14.9906631701
  C        13.7408572083        2.3055238969       16.0484619647
  C         7.2469738397        8.4501639498       16.2511801955
  H        13.2169756784        4.9103501181        6.0152789053
  H        13.6656265568        4.6535897602        4.3969720486
  C        14.7573190289        6.2154838860        5.2339411082
  H         8.2861238668        5.1757588063        4.0549771042
  H         8.8459546577        4.6681014698        2.4480948050
  C         7.5928362708        6.3417729851        2.4853575035
  C        11.9329517447       -0.0078366974        1.0200018044
  C        12.2402536959        2.1015654322       -0.2058941093
  H        14.2961356709        3.1390575845       15.7101428775
  H        14.5054663011        1.5502778324       16.2479440971
  C        13.0933302732        2.7237538462       17.4110140384
  H         7.5881377895        9.4325479910       16.3025541844
  C         6.9109508426        7.9952664426       17.5150024038
  H        14.6907576887        7.1907066220        5.7206678615
  H        15.1905947923        6.3918811579        4.2307393530
  C        15.7126042028        5.4355616848        6.1479145476
  H         7.1271433149        6.8572742177        3.3392836517
  H         7.9898274462        7.0384242093        1.7883825470
  C         6.4849369209        5.5573194919        1.7741957372
  N        11.7330438684       -0.8096357927        2.1268295956
  C        12.1947368343       -0.7382494353       -0.1398392082
  C        12.5365223658        1.3714167128       -1.3399103659
  H        12.2914443453        3.2171895986       -0.2307768895
  H        13.7196524706        3.3778651548       17.9771741237
  H        12.9194819178        1.8639595953       17.9947313212
  H        12.1185645091        3.1792513694       17.2560331781
  S         6.3723725828        6.4397031890       17.9294028056
  C         6.7688921067        9.0197050175       18.6057994410
  H        15.1586644388        5.2615364605        7.0917876471
  H        15.9729289017        4.4242165327        5.8100678360
  C        17.0281592378        6.1879061162        6.4120544137
  H         6.0571237834        4.8096228028        2.4259153696
  H         6.9596618955        4.8472515240        1.1151544621
  C         5.3606569013        6.3599446570        1.0874505087
  S        11.7231365901       -2.3269864752        1.6017828590
  N        12.0298367613       -2.0853661661        0.0727307465
  C        12.5458358803       -0.1455151128       -1.3695038879
  H        12.8123039105        1.9728830161       -2.1980437310
  C         6.2784468479        7.0997338468       19.5654916720
  N         6.4255796166        8.3941693000       19.7452396367
  O         6.9880408354       10.1881766283       18.4444848383
  H        17.3662348817        6.6245883837        5.5284684244
  H        16.8280689758        7.0014463225        7.0821487404
  C        18.0787982666        5.2889541863        6.9447462074
  H         5.8088531948        6.7604867666        0.1709318414
  H         4.5788794328        5.7220763685        0.7041904290
  C         4.6227957932        7.4346032643        1.9197815473
  C        12.7899111917       -1.0570506608       -2.4780415002
  S         5.7645509194        6.1137092940       20.9626017464
  C         6.1816240046        9.1104777449       20.9909998292
  H        17.6990090911        4.8786504972        7.8008508587
  H        18.3767326093        4.4124669433        6.2862055286
  C        19.3688913740        6.0350317621        7.2766907367
  H         5.3246590674        7.9756424211        2.4482736259
  H         4.1050974198        6.8697092878        2.7366455510
  C         3.7213800005        8.3989401901        1.1480509668
  H        12.6168740194       -2.1258896608       -2.3014029829
  C        13.3289611844       -0.9364956206       -3.7749637198
  H         5.3258994297        8.6475589617       21.5397401519
  H         5.6725161976       10.0145289168       20.7319063947
  C         7.4475545798        9.4417319615       21.8154049807
  H        19.7065070127        5.4768446398        8.1630715035
  H        19.0665830872        7.0243626397        7.5010923552
  C        20.3683479351        5.8778946598        6.1108038844
  H         3.6628569382        8.1084452102        0.0914124491
  H         2.7760743984        8.1843778302        1.5105615578
  C         4.0277979638        9.8133274504        1.3459543966
  S        13.8016232304        0.5953603689       -4.3813756809
  C        13.3789773552       -2.0688642756       -4.7364827657
  H         7.5462938360       10.5060184421       21.9403421807
  H         8.3700970787        8.9303261406       21.5255766244
  H         7.3008538479        9.0140625754       22.7474308136
  H        19.7267664407        5.9581802086        5.2458892551
  H        21.0886760473        6.6964473348        6.1149533320
  H        20.8850087811        4.9358923877        6.1405921483
  H         3.6331707266       10.2343928562        2.2602389058
  H         5.1100627029       10.0676214695        1.2968543873
  H         3.5638127807       10.3781699626        0.5304891731
  C        14.1359530439       -0.2635625108       -5.8371736664
  N        13.8712067397       -1.6171236347       -5.8768456466
  O        13.0700164340       -3.2363282765       -4.3656765790
  S        14.6982813170        0.4158039797       -7.3176102825
  C        13.8721558706       -2.5357057681       -6.9862891735
  H        13.6794372388       -3.5313218150       -6.6859794863
  H        14.8593861688       -2.5210798958       -7.4082822258
  C        12.8446798391       -2.1876052464       -8.0115867552
  H        11.8538211826       -2.5141740102       -7.7695089775
  H        13.1871535025       -2.5540316269       -8.9610345617
  H        12.7611556149       -1.1357512861       -8.0907181023
  H        -1.0568014212       14.3702127702       16.7492481960
  C        -2.1242614725       14.5850347690       16.7876163246
  H        -2.3488473961       15.6351644816       16.5173078168
  C        -2.7253257916       14.3381811546       18.0756411851
  C        -2.8432135356       13.7478007498       15.7084583986
  C        -2.3361166664       12.9942519700       18.6993494444
  H        -2.5369493590       15.1328752332       18.7279496722
  H        -3.8077760513       14.4353291345       17.8178381009
  H        -2.2654131827       12.8132003524       15.7346215554
  H        -3.8811511992       13.4487778385       15.9548995576
  H        -2.7397401427       14.2147158068       14.7394195365
  C        -1.4410697569       13.1233037421       19.9369289176
  H        -1.9393168866       12.3972478018       17.8501951643
  H        -3.3472877944       12.5858634815       18.8877971813
  C        -2.1392312383       13.4260316853       21.2605170578
  H        -0.8266762738       12.2675239680       20.0580608367
  H        -0.7298341299       13.9074249450       19.7913148147
  C        -1.2844980504       12.9467683078       22.4850734427
  H        -3.1589355447       13.0668906645       21.4075745567
  H        -2.3013563202       14.4658639727       21.1653556940
  C        -0.0420304867       13.9253598659       22.7071345759
  H        -1.9731774265       12.8482700308       23.3035296336
  H        -1.0124272698       11.9585180487       22.2772782021
  C         1.1824247459       13.2813127635       23.4397629276
  H         0.2902136078       14.3397726076       21.7947082491
  H        -0.3468931860       14.8237438050       23.2294460472
  C         1.6300039396       12.0194199355       22.7223016257
  C         0.7177919838       12.6128626562       24.6168863166
  C         2.4132741819       14.1689115824       23.5690905432
  C         1.4455248035       10.8830269698       23.4770262163
  C         2.3041249661       11.7272914383       21.4948077851
  C         0.8042927010       11.2431992790       24.6607491802
  C         0.2108917466       13.2531130548       25.7265555624
  H         2.4780286153       14.4986931312       22.5661979074
  H         2.0623488919       15.0063295578       24.1405847084
  C         3.7229619727       13.5212200706       24.1085525191
  S         2.0633906432        9.4150667531       22.8200635403
  C         2.4297829841       10.3347591415       21.3515505443
  H         2.5327361711       12.5136952274       20.7880677065
  C         0.4784209645       10.5946967279       25.8136533664
  H         0.1948259013       14.3573530265       25.7246705954
  C        -0.0499129343       12.5898181645       26.8750343125
  H         3.9240064734       12.5714718550       23.5787683726
  H         3.4680095389       13.1641287655       25.1775799518
  C         4.9412840190       14.4653252568       24.1857640625
  C         2.8731737701        9.6977213376       20.1312491447
  C         0.0456218403       11.2016895772       26.9856143619
  H         0.5111033173        9.5340168084       25.8841445422
  C        -0.3775166072       13.0172254408       28.1119198803
  H         5.7706957595       13.9084054665       24.6354125425
  H         4.8513048055       15.2717557824       24.7970028144
  C         5.4467014000       14.9785878521       22.7730846858
  C         2.8526176161        8.2757400344       19.8802833385
  C         3.2148185359       10.4500454569       18.9700331164
  C        -0.4964003679       10.5663225789       28.2478829975
  C        -0.6677091803       11.9508346137       28.9396342072
  S        -0.6734582080       14.5048414791       28.8540132768
  H         5.9208090435       15.9735456675       22.9381188063
  H         4.5512134144       15.2240639205       22.1449305816
  C         6.3103505602       14.0521357697       21.9801953138
  N         2.4510355090        7.3874123822       20.8720275599
  C         3.1503792469        7.6794056713       18.6422228734
  C         3.4828940565        9.9178711787       17.7008546236
  H         3.2808809950       11.4771335266       18.9948758749
  C         0.5421297983        9.6345998717       28.9633288098
  C        -1.7847323427        9.7828640848       28.0173568968
  C        -1.0525139602       12.3055951659       30.2198161525
  C        -0.9182264868       13.6761056851       30.3923837346
  H         7.4083916860       14.3951514803       22.0567237621
  H         6.3209559738       13.0599739876       22.4430831470
  C         5.6836026565       13.8984688329       20.6398224202
  S         2.4485304555        5.9128856852       20.2242165948
  N         3.0925883554        6.2244521105       18.7096533237
  C         3.4486836742        8.4630453523       17.4488876994
  H         3.7412742296       10.5447712759       16.9007282415
  H         0.8199737693        8.8537441252       28.3099292920
  H        -0.0575668730        9.2802804867       29.8293781873
  C         1.8251090521       10.3319726378       29.4082560890
  H        -1.5136041685        9.0021107110       27.3018649319
  H        -2.1433284113        9.2412670470       28.8753154460
  C        -2.8301903260       10.5918876237       27.2467699621
  H        -1.2979047459       11.5170782625       30.9592254806
  C        -1.2966973044       14.4500963365       31.6224947918
  H         5.6418978318       14.8732427836       20.3130307029
  H         4.7057774453       13.3813005956       20.8898940044
  C         6.4649639607       12.9758350294       19.7940325679
  C         3.8536268129        7.7116844255       16.2492400225
  H         2.1690957699       10.8238867491       28.4938139774
  H         1.4102362444       10.9756568076       30.2275246699
  C         2.8734650184        9.4075790424       30.0750077217
  H        -2.6882944001       10.6912992792       26.2311772952
  H        -2.8305944370       11.7152985864       27.5312340587
  C        -4.2868455808       10.0315041796       27.4011954162
  C        -1.6078321431       15.8465220748       31.6880224027
  C        -1.5343985373       13.6474198403       32.8506324390
  H         6.7885786305       12.0173246842       20.2513119071
  H         5.8213106953       12.7245168089       18.9976382817
  C         7.6558291159       13.7868475272       19.1322562083
  H         3.8355125191        6.6634300898       16.3338298982
  C         4.0489201468        8.1144106402       14.9985971209
  H         3.3052569068        8.9105461689       29.2739725706
  H         2.2960438250        8.7582275801       30.7129442331
  C         3.8897382023       10.2385411696       30.8104970327
  H        -4.2816692510        9.0652557596       26.9690201764
  H        -4.4910239036        9.9836773527       28.4506050560
  C        -5.3730545856       10.8505025682       26.7088118927
  N        -1.3987338692       16.7789845034       30.6893158743
  C        -1.9576812794       16.4104185346       32.9170083702
  C        -2.0545640291       14.2212070898       33.9920182632
  H        -1.1349900661       12.6864057900       32.9423542244
  H         7.4168434012       14.5809271623       18.3457956010
  H         8.2587961680       14.2931789968       19.8533841249
  H         8.3550023162       13.1170820230       18.6732691765
  S         4.1645723304        9.7479989447       14.4983303236
  C         4.2888763149        7.0564411019       13.9992910856
  H         4.1456801151       11.0807216013       30.2236556892
  H         3.5666844620       10.5675708415       31.7630969058
  C         5.1304762672        9.4264415204       31.0720817524
  H        -5.1854351085       11.9029341954       26.6052515049
  H        -6.2360701987       10.7315750991       27.4187880739
  C        -5.7644159314       10.4079039473       25.3211390108
  S        -1.5805562134       18.2325549981       31.2969002664
  N        -2.0733534688       17.8320584690       32.8045477453
  C        -2.2139143645       15.6898497955       34.0754319612
  H        -2.2431093139       13.6231075330       34.8316441821
  C         4.4621029952        8.9899931312       12.9212880186
  N         4.5614683128        7.6499840719       12.8365448147
  O         4.1361415554        5.8483990554       14.1374614911
  H         5.8604036888       10.1432429027       31.5275159175
  H         5.3787706763        9.1615430499       30.0755712052
  C         5.0242473203        8.1012491241       31.8176950794
  H        -4.8909403400       10.4417714061       24.5632784940
  H        -6.0087512769        9.3662766620       25.3430464094
  C        -6.8460278185       11.3125725902       24.7555704575
  C        -2.5192702020       16.3459315043       35.3164695734
  S         4.7841271307        9.9387622445       11.5183812485
  C         4.7066805511        6.9211069581       11.6239907774
  H         4.3258072500        8.2061018752       32.7021270969
  H         4.4197057531        7.4932570851       31.0529565204
  C         6.3838270094        7.4989476766       32.0281640684
  H        -6.4573023199       11.7923769081       23.8484204300
  H        -7.0978354390       12.2690559354       25.3807617712
  C        -8.1216130155       10.5113853344       24.4148149085
  H        -2.3872469089       17.3995926152       35.3790150288
  C        -2.9921885024       15.8881290726       36.5397264880
  H         5.2261834303        7.5246857450       10.8182715498
  H         5.3398109213        6.0337686183       11.7206936636
  C         3.3192589387        6.6286635944       11.0605171557
  H         6.3585456059        6.9033730596       32.9210592207
  H         7.0006688926        8.3514540331       32.2980500741
  C         7.0765100578        6.6211131112       30.9856457934
  H        -8.6013161236       11.1119117769       23.6158297933
  H        -7.7124495951        9.6196189840       23.8904928978
  C        -9.0031448068       10.3342316737       25.6403535801
  S        -3.6427063899       14.3489142202       36.8851859091
  C        -3.0714412177       16.8543699411       37.6595814486
  H         3.1538550545        6.9417646792        9.9998181367
  H         3.0673026578        5.5873370160       11.0818872831
  H         2.5053130195        7.0455155558       11.7137963137
  H         6.8649371483        6.8130955313       29.9275581390
  H         6.8513446680        5.5648895389       31.0164682871
  H         8.1391609052        6.6634213877       31.1670857874
  H        -9.2050373718       11.3385627051       26.1187951081
  H        -8.5813634851        9.6621861953       26.3556351946
  H        -9.9443198018        9.9111077087       25.3865222704
  C        -3.9957912602       14.9751260792       38.4982915352
  N        -3.7067545452       16.2870083332       38.6795174922
  O        -2.6963452361       18.0333817481       37.5617157099
  S        -5.0348986395       14.1444395539       39.6541434302
  C        -3.8582081475       17.0147681374       39.9118985611
  H        -3.5535396960       18.0565912381       39.8773024380
  H        -4.8517125025       17.0462322190       40.3765309610
  C        -2.8876427845       16.3985257867       40.9268481474
  H        -2.5533067910       15.3793468941       40.7583204193
  H        -2.0364425371       17.0650974907       41.0080310490
  H        -3.4056677275       16.3338696670       41.8518782019
