352
i=
  H         4.5595287474        1.9337789849       12.7195172337
  C         3.6702957698        2.5083016912       12.6382600041
  H         4.0721279020        3.5067532680       12.4636659800
  C         2.9144490541        2.3926088824       11.3067304932
  C         2.8383967936        2.4923285000       13.9047894169
  C         3.9591883694        2.4772397258       10.1589555285
  H         2.0952976214        3.1262941328       11.2810273770
  H         2.4467644693        1.4181126447       11.3299968753
  H         1.9720599261        1.9241314087       13.6891593234
  H         2.7279792804        3.4494704266       14.3716155696
  H         3.4977819878        1.8738355213       14.5426490341
  C         4.6716918510        1.2271566390        9.7753260831
  H         3.4115811729        2.8495092591        9.3041830182
  H         4.5690142557        3.2683534669       10.2746361155
  C         5.4221023393        1.3035116630        8.3946817025
  H         3.7993729561        0.5835622960        9.6342055275
  H         5.2062103057        0.8182898413       10.6615165080
  C         6.5699353573        2.3385629096        8.3213685596
  H         4.7608914394        1.4191430932        7.5666084314
  H         5.8109679684        0.2717960127        8.3335193075
  C         7.8393057543        1.6989122561        9.0151401790
  H         6.8371595620        2.6928153942        7.3132066616
  H         6.2487597285        3.2068033405        8.8247007240
  C         9.0258954899        2.6130174333        9.2133796403
  H         8.1715023991        0.8612779893        8.4696588916
  H         7.5281165809        1.3552726706        9.9689639373
  C         8.5832810870        3.9274655942        9.8715838001
  C         9.3983677018        3.3772779303        7.9540697318
  C        10.2404261290        1.9267219570        9.8513471179
  C         8.8291710748        5.0672193728        9.0884002976
  C         7.9930603918        4.3323429142       11.1036699919
  C         9.3552607007        4.7013833237        7.8920573469
  C         9.9085429285        2.7654173316        6.8155608223
  H         9.8987320652        1.6144355076       10.8262466744
  H        10.3406724953        1.0078535921        9.3141787766
  C        11.5371255664        2.7476515871       10.0254871899
  S         8.4447014842        6.5732817415        9.8714955393
  C         7.9834327313        5.7042843658       11.2404699238
  H         7.7967377700        3.5777959262       11.8757491421
  C         9.8973584922        5.3583125866        6.8420097599
  H         9.8696575098        1.6848919256        6.8118352462
  C        10.4097857475        3.3953538398        5.7358388299
  H        11.2229786484        3.7059670631       10.4684390736
  H        11.9995720387        3.0962501508        9.1038715245
  C        12.5145699174        2.0833598987       11.0137189304
  C         7.4565636122        6.4344525426       12.4494841842
  C        10.3758509809        4.7900609548        5.6570927737
  H         9.8000196438        6.4602803824        6.9297979918
  C        10.8583625731        3.0314243730        4.4493624756
  H        13.4892486332        2.5448639225       11.0169886922
  H        12.7186990855        1.0888357422       10.6741179270
  C        12.0484751291        2.1489786143       12.4512143483
  C         7.5909748490        7.7982513972       12.6299112791
  C         7.1031489237        5.6036609211       13.5959389058
  C        10.9427268371        5.4595244031        4.4387079118
  C        11.0862629711        4.1465458586        3.7005765258
  S        11.1754589224        1.5808969070        3.5873741271
  H        11.4621461371        3.0768860024       12.5498228107
  H        11.3985482333        1.2932741971       12.6838087759
  C        13.2458076194        1.9110971743       13.4358046307
  N         7.8958687889        8.8191676500       11.7308072423
  C         7.3412317745        8.3041620561       13.8733376390
  C         6.8402323316        6.1098643911       14.8205388400
  H         6.8916761095        4.5360246575       13.5283747628
  C        12.2102946122        6.2205112734        4.7096897102
  C         9.8497453849        6.2856194839        3.6854089803
  C        11.5678305432        3.8196154442        2.4366024892
  C        11.6195186868        2.4860055832        2.2354235692
  H        13.7549424524        2.8278878358       13.7471434036
  H        14.0643278048        1.3415901498       13.0177529667
  C        12.7651609049        1.2154505172       14.7003081963
  S         8.0988951916       10.2707176888       12.4985846311
  N         7.5241814791        9.6773850750       13.8830059121
  C         6.9298499314        7.5532568239       15.0028673044
  H         6.5753554209        5.4296583357       15.6288637244
  H        12.1344194762        6.9267359791        5.4837657044
  H        12.5555044882        6.8327671948        3.8476398241
  C        13.2883584084        5.3498223079        5.2614691924
  H         9.4902901510        7.0901486800        4.3220433898
  H        10.2208239606        6.8486025853        2.7972457489
  C         8.5785698711        5.4136228368        3.2948179944
  H        11.8404398404        4.6961781743        1.8125198287
  C        11.9574767694        1.8164641432        0.9581636435
  H        11.6813717245        1.4846413190       14.8566711656
  H        12.7314283528        0.1130019651       14.4627162236
  C        13.4972642140        1.5440733562       15.9562805531
  C         6.7655165708        8.3455298867       16.2017200822
  H        13.1003120599        4.8124884832        6.2191866492
  H        13.5784971346        4.5288924789        4.5991124197
  C        14.5376529575        6.2181172157        5.3662339024
  H         8.1923578753        4.7621858584        4.1470327972
  H         8.7385527507        4.6785315194        2.4869136633
  C         7.5183056081        6.2969278870        2.6861436594
  C        11.9811460016        0.4179580240        0.6797013576
  C        12.2947002013        2.5903318245       -0.2480400995
  H        14.4713697369        2.0352822707       15.7969177189
  H        13.8861904321        0.6039298988       16.3956883189
  C        12.6968364123        2.3636814410       16.9189513164
  H         6.7463110089        9.4846280003       16.0762342455
  C         6.4744875995        7.9543657731       17.4569359915
  H        14.5407435126        6.8572266572        6.2806964030
  H        14.6742544361        6.8848609507        4.4983681991
  C        15.7511511978        5.3793902627        5.3619420688
  H         7.0984259258        7.1234131435        3.2944653171
  H         8.0518479629        6.7722234082        1.8521220912
  C         6.3334702229        5.4663316704        2.1862529709
  N        11.6736862429       -0.4785351899        1.6699361213
  C        12.2006609485       -0.2213856952       -0.5396898893
  C        12.6832733894        1.9412366715       -1.4194593836
  H        12.5275106468        3.6523889622       -0.1731626302
  H        11.6652847760        2.0636727612       17.1025528270
  H        12.7134239874        3.3494689936       16.7057241709
  H        13.2012663697        2.2481105831       17.8976293110
  S         6.0626949874        6.4117900891       18.0726049715
  C         6.6359428440        9.0229851016       18.4991896630
  H        15.4731611661        4.5047692015        5.9614189391
  H        15.9939033456        5.0495471011        4.3569605779
  C        17.0125447587        6.0413936176        5.8770274762
  H         6.0737770753        4.8263651645        3.0349269594
  H         6.7140833654        4.7928836811        1.3836356886
  C         5.1317486612        6.2225494811        1.5619888329
  S        11.4439758388       -1.9761987957        1.0098824240
  N        11.8823509384       -1.6109174445       -0.4785059803
  C        12.5568993673        0.4933326325       -1.6610115732
  H        13.1759832957        2.5542786444       -2.1505001940
  C         6.2092333808        7.1734781605       19.7174947581
  N         6.3974165262        8.5070680875       19.7063166951
  O         6.8573888822       10.2303882407       18.3042977163
  H        17.5956593657        6.4269414729        5.0427476099
  H        16.7177149050        6.9356162205        6.4532313052
  C        17.5951399239        5.0800952774        6.8919319977
  H         5.5131081781        6.9212652557        0.8093612301
  H         4.5122552136        5.5039351642        1.0100769246
  C         4.3326492757        7.0747048064        2.5069766153
  C        12.7993824285       -0.1771919208       -2.8717885880
  S         5.7708255699        6.2148896026       21.2059052142
  C         6.5843702595        9.2865152261       20.9161696611
  H        16.8999957274        4.8751416949        7.6837318121
  H        17.8739056016        4.1371137972        6.4537716564
  C        18.8895876610        5.7347316891        7.4567410693
  H         4.6475546238        6.7781755744        3.5115893238
  H         3.2816919206        6.7554956842        2.5694691561
  C         4.4415699470        8.5908220027        2.4554287486
  H        12.8158104015       -1.2107083390       -2.7850578039
  C        13.2479153447        0.2875679010       -4.1244408529
  H         5.8826897602        8.8576359369       21.7249585173
  H         6.3135906110       10.3800405457       20.8827671901
  C         8.0807602930        9.1716010473       21.4034389068
  H        19.0947799372        5.2642373868        8.4389210677
  H        18.6591421100        6.8204291499        7.6761234086
  C        20.0808093321        5.7713191991        6.5470494030
  H         4.2995304430        8.9147997257        3.4959065088
  H         5.3876717982        8.8370673487        2.1823840119
  C         3.2497511578        9.1408190181        1.6486383615
  S        13.6744606021        1.9190504543       -4.5665018421
  C        13.5420628228       -0.7767721316       -5.1163352201
  H         8.2350436353        8.3391670003       22.0746601967
  H         8.4360864689       10.0291979954       22.0202924552
  H         8.7879444692        9.0811209126       20.5649512062
  H        20.6648922949        4.8728522600        6.6373231649
  H        19.8057900144        5.8898347405        5.5135552032
  H        20.7864597132        6.5537641311        6.8508534223
  H         2.9597447495       10.2097472002        1.7183694845
  H         3.3353017532        8.8365865749        0.6095371419
  H         2.3741535541        8.6290737209        2.1322960698
  C        14.3325204474        1.1796473541       -6.0773941009
  N        14.1657331384       -0.1519873575       -6.1575886493
  O        13.2185165117       -1.9447273552       -5.0386480332
  S        15.0062938503        2.0507403676       -7.3894430277
  C        14.4065965778       -0.8947514276       -7.3771290786
  H        14.6551200881       -1.9032106237       -7.0999707348
  H        15.3126118084       -0.4642553174       -7.8811815176
  C        13.2174518177       -1.0023358341       -8.3278281423
  H        12.3670029869       -1.2989890107       -7.7366343917
  H        13.2755369651       -1.8097320327       -9.0872819422
  H        13.0376672726       -0.0743399252       -8.7842230157
  H        -3.3130770096       14.3788168263       16.1154749225
  C        -3.0153573350       13.3733869003       16.2690210445
  H        -3.9515550238       12.9333784114       16.5867864994
  C        -1.9401643981       13.1278043393       17.2749351079
  C        -2.5400920900       12.9121433777       14.8787268068
  C        -2.2422915052       13.9195987889       18.5687136757
  H        -1.7023109124       12.1128264269       17.5567517105
  H        -1.1096124284       13.5905782963       16.8697468231
  H        -1.5286731990       12.6468682046       14.9709139132
  H        -3.0126900831       12.0253609524       14.4014598895
  H        -2.7017882115       13.8050177960       14.2504594081
  C        -1.2223421847       13.6460911352       19.6852383325
  H        -3.2833825232       13.7052860674       18.9241685314
  H        -2.3251414916       14.9512769313       18.3938960696
  C        -1.9210707242       13.2507740790       20.9730509914
  H        -0.3673982928       13.0507338356       19.4218590143
  H        -0.7320315465       14.5032119847       19.9917848051
  C        -0.9714980523       12.8085178695       22.0582451523
  H        -2.6234208256       12.4599284674       20.6726053993
  H        -2.4254246771       14.1081704594       21.3913606664
  C         0.0543464408       13.8513480127       22.5868114825
  H        -1.4358893756       12.1702902268       22.8033991138
  H        -0.4675635740       12.0364769266       21.5833808375
  C         1.2715571818       13.1042419315       23.3225764662
  H         0.4674388900       14.5680391912       21.8767922033
  H        -0.4669024450       14.5623757105       23.2384545598
  C         1.7807886904       11.7795913341       22.5864924946
  C         0.8356760913       12.3792895509       24.5646966739
  C         2.5603016341       13.9463714538       23.6242213852
  C         1.6192286003       10.6608587977       23.4127444123
  C         2.2510123337       11.3971388177       21.3002463150
  C         1.0816686669       11.0448230099       24.6656755494
  C         0.3041261695       12.8917633952       25.7054787247
  H         2.8470290161       14.5158391443       22.7401733422
  H         2.4806265039       14.6155178281       24.5119955845
  C         3.8261797949       13.1055039511       23.9183965955
  S         2.0483297693        9.2096125198       22.7126316788
  C         2.4392729870       10.0418791249       21.1878928581
  H         2.1968649886       12.1398110017       20.5516262043
  C         0.6814109656       10.3655156005       25.7767708754
  H         0.1634094598       13.9813770860       25.6984829085
  C         0.0502005521       12.2382977030       26.8667501635
  H         4.0086742250       12.2695293129       23.2204331644
  H         3.6292704670       12.6910273890       24.9206433413
  C         5.1841773032       13.9118923396       23.9955807822
  C         2.5769428994        9.3097818247       19.8921812222
  C         0.1195658112       10.9209326644       27.0014197093
  H         0.8708775110        9.3239170803       25.8459708984
  C        -0.3677675649       12.5689599990       28.1844958523
  H         5.9735233224       13.1846541630       24.2554171899
  H         5.1494943492       14.5000086261       24.9070528421
  C         5.5734176040       14.7880177265       22.8553461404
  C         2.5869345192        7.8945808446       19.7634692134
  C         2.9304903013       10.1266045320       18.7070789699
  C        -0.3650961451       10.1459465924       28.1745540770
  C        -0.6435863219       11.4487319767       28.9744790935
  S        -0.6728214087       14.0487209243       28.9784668455
  H         6.3456890209       15.4988349296       23.1078757051
  H         4.6788682044       15.3174440865       22.5229833849
  C         6.1930518804       13.9108545693       21.7593080911
  N         2.3029555487        6.9839036085       20.7409963370
  C         2.8534850079        7.3017132597       18.5628293002
  C         3.3508982023        9.5016246699       17.5686264837
  H         3.1023641915       11.1835567049       18.7783548385
  C         0.8840954748        9.4348975553       28.7663136391
  C        -1.5986304275        9.2430251648       27.8993383073
  C        -1.0159050017       11.8776554336       30.2831129308
  C        -1.1264281082       13.2044377663       30.4323020594
  H         7.1281391619       14.3152397286       21.5514056661
  H         6.4677973415       12.9034201878       22.1934898265
  C         5.3438824126       13.8627259182       20.4808633654
  S         2.4706352291        5.4319616896       20.1662315951
  N         2.8917852969        5.8503827562       18.5791804741
  C         3.1352085008        8.0651562212       17.3729075690
  H         3.4878788952       10.2359463391       16.7515541420
  H         1.3453144830        8.7555540320       28.0926469934
  H         0.5003574786        8.8318155699       29.5612203592
  C         1.9296139546       10.3822327903       29.3881034914
  H        -1.2659652225        8.4950291695       27.0986339203
  H        -1.9495020161        8.7074375719       28.8324564732
  C        -2.7955860072       10.1345091046       27.4626470477
  H        -1.3244506128       11.0862009411       31.0312395541
  C        -1.5797647814       13.8922563976       31.7137189192
  H         4.7985822798       14.7492396184       20.4125384216
  H         4.6475013801       13.0489858132       20.5713057394
  C         5.9875185344       13.5789026540       19.0942554574
  C         3.2250617346        7.3790067498       16.1149239467
  H         2.3030706506       10.9114477278       28.5000463506
  H         1.4042860719       11.0126765059       30.1203051673
  C         3.0256834906        9.5907885612       30.0473640220
  H        -2.5847405507       10.8720050363       26.7032808466
  H        -3.0120826609       10.8289027275       28.2912709406
  C        -3.9943339768        9.3308512542       26.9148608401
  C        -1.7388769910       15.3219853952       31.8577611885
  C        -1.8104998465       13.1596049014       32.9510478180
  H         5.4949035518       12.6806915954       18.7937389158
  H         5.7963549140       14.2993822876       18.2927933259
  C         7.4427981444       13.2936512820       19.0837546988
  H         2.9386427715        6.3340215637       16.0680827800
  C         3.5428289268        7.7962648675       14.8280734628
  H         3.2385261356        8.6266529321       29.5312173459
  H         2.4931604538        9.3230740521       30.8934541631
  C         4.4118755619       10.2585560370       30.3082788448
  H        -3.6514135127        8.5995917801       26.1314385946
  H        -4.4174410032        8.8316081647       27.8406704320
  C        -5.0173600709       10.2497625135       26.2824656214
  N        -1.5283192209       16.2437398978       30.8038373001
  C        -2.0861932236       16.0289658410       32.9959636241
  C        -2.1164777707       13.8007635676       34.1473938580
  H        -1.7248447062       12.0842748689       32.9497351048
  H         8.0052700930       14.1840376955       19.2574135668
  H         7.7234967864       12.5652084256       19.8929019434
  H         7.7716812277       12.8048906640       18.1435352209
  S         3.8561506862        9.3881046408       14.3810419926
  C         3.6952907087        6.7315846279       13.8122250989
  H         4.6391478127       11.1146053449       29.6584363345
  H         4.5998593454       10.7498815173       31.2693714704
  C         5.6239881743        9.2897978234       30.1661419404
  H        -4.6476949841       10.6527515011       25.3079015948
  H        -5.2343264226       11.0708480883       26.9645656291
  C        -6.3776556253        9.6735176119       25.9847739548
  S        -1.7376451465       17.7419543580       31.3183731779
  N        -2.0966675537       17.4104914185       32.8937906296
  C        -2.2958535320       15.3081106300       34.2192613013
  H        -2.2162813423       13.1519911984       35.0356302989
  C         4.0955340278        8.7178919781       12.7602028135
  N         3.9873082171        7.3631659399       12.6644181588
  O         3.4882064966        5.5238757472       14.0065838158
  H         6.5577646573        9.8513777349       30.2112054436
  H         5.6025418090        8.8093890393       29.2483538753
  C         5.5229997186        8.2294769276       31.2330882875
  H        -6.1640338463        8.8311731092       25.3641033980
  H        -6.8819472453        9.2521049081       26.8022960237
  C        -7.2786321919       10.4704088807       25.0590863147
  C        -2.4581056881       16.0019159583       35.4215534676
  S         4.5006048282        9.6239435140       11.3027017120
  C         4.0908351616        6.6078539607       11.4533263960
  H         5.6381816328        8.8323771487       32.1110889912
  H         4.4908514032        7.7628241754       31.3384548724
  C         6.6465563710        7.2104396925       31.1893934492
  H        -6.7112383623       10.6036008457       24.0884264477
  H        -7.3683841692       11.4370586778       25.5749661876
  C        -8.6496773194        9.8802485510       24.7564465699
  H        -2.2948109882       17.0267542820       35.3675937955
  C        -3.1589460534       15.6648087769       36.5785808853
  H         4.8232855910        6.9615681938       10.8303329918
  H         4.3392432416        5.5414979591       11.6073250968
  C         2.7683591472        6.6096306692       10.6583085397
  H         6.6610078059        6.6607032345       32.1571769892
  H         7.5458201884        7.7643115651       31.2249247548
  C         6.5347276937        6.1589356145       30.0823201223
  H        -9.1298182049       10.5383149510       24.1167021726
  H        -8.5287112156        8.8600272131       24.2526912436
  C        -9.5644110658        9.7765265662       25.9627612395
  S        -3.9326986983       14.2465547518       36.9700095010
  C        -3.1258852266       16.6669098049       37.6689755634
  H         2.8084281861        7.2160610020        9.8055559115
  H         2.4085215757        5.6590174345       10.4301279753
  H         2.0330607056        7.0616347429       11.2798489525
  H         7.5116410066        5.8348772667       29.7181972240
  H         5.9061895195        6.3638621862       29.2123073945
  H         6.0333857127        5.2855970555       30.5342744705
  H       -10.4904261871        9.4491397725       25.5524395296
  H        -9.7528926939       10.7201074424       26.4314752688
  H        -9.3181089090        9.0973009491       26.7021662438
  C        -4.2961743818       14.9880895516       38.5151551804
  N        -3.8439201052       16.2290723520       38.7122797445
  O        -2.5455598279       17.7456377227       37.5710573520
  S        -4.8101973088       13.9319637382       39.8236586373
  C        -3.9448674133       17.0043636534       39.9631821331
  H        -4.1431462615       18.1076633033       39.8016785642
  H        -4.9149272369       16.7056427221       40.3993339162
  C        -2.7374128125       16.8089318678       40.7946276388
  H        -1.7892872388       16.8791340298       40.2283895775
  H        -2.5954435870       17.3884186496       41.7169107966
  H        -2.8346319099       15.7972865139       41.1718205714
