352
i=
  H         3.6406161072        3.7007384732       12.2822059381
  C         3.3245053109        2.6905076213       12.3442406563
  H         2.3566317675        2.6628058082       12.7469420236
  C         3.3059615195        2.1403526305       10.8656517544
  C         4.2515862223        1.8569411384       13.1757531807
  C         4.4547769474        2.5857922118       10.0099707954
  H         2.3011199718        2.3770657265       10.4458365706
  H         3.2216396573        1.0815205097       10.8147226287
  H         3.7454175287        1.6804535945       14.1811513576
  H         5.2776326213        2.2934145094       13.3265965164
  H         4.2801838806        0.9181720219       12.7025791359
  C         4.8072687341        1.4802638989        9.0071954192
  H         4.2540314975        3.4929487262        9.5332581562
  H         5.3047351470        2.7043168982       10.6147920116
  C         5.6527551800        1.9249088798        7.7840848864
  H         3.8157314703        1.1986296442        8.6366416366
  H         5.2628873284        0.6634606681        9.4847779207
  C         6.9194647117        2.7491788884        8.1441447793
  H         4.9363062752        2.3962434223        7.1440655490
  H         5.8664726090        1.0138738392        7.2059614771
  C         8.0732080653        1.9402545154        8.9479836508
  H         7.3232183260        3.3161535876        7.2670017924
  H         6.5922328249        3.4662596998        8.8364088259
  C         9.2850803351        2.8210389560        9.2119396044
  H         8.4949544266        1.0681892540        8.4921441382
  H         7.5393032287        1.5124207967        9.7825091291
  C         8.9788095047        4.2107840531        9.8835792355
  C         9.8595363060        3.5776568382        8.0702234308
  C        10.4155448632        2.0576477789        9.8783167918
  C         9.3324056605        5.3423912127        9.1779296276
  C         8.2512535618        4.5651124778       11.0558876079
  C         9.9207469754        4.9570448685        7.9720803726
  C        10.3724069673        2.9286230565        6.9803285302
  H        10.0007517925        1.6123658514       10.7383744965
  H        10.6782990391        1.1212785663        9.3795006994
  C        11.6385700473        2.9364716848       10.3139407928
  S         8.9967814974        6.7783476595        9.9822662376
  C         8.3409454059        5.9113506770       11.2955260591
  H         7.7235983532        3.8588568262       11.6152584637
  C        10.3799264202        5.6066487930        6.8450166551
  H        10.2811661626        1.8049989672        7.0488464993
  C        10.7846629008        3.5300528191        5.8401883552
  H        11.3460083488        3.8790249111       10.7685369097
  H        12.1064927237        3.1386109211        9.4116202656
  C        12.5185819913        2.1840960555       11.2801332403
  C         7.7302388810        6.5938182963       12.4878825688
  C        10.7963692588        4.8691989859        5.7117487200
  H        10.4487429193        6.6957672347        6.7968277828
  C        11.1313952996        3.0895323587        4.6253934642
  H        13.6207755904        2.4421261193       11.2205342004
  H        12.4602405384        1.1352596225       11.1293078610
  C        12.0963893773        2.4127443745       12.7369782713
  C         7.7218117201        8.0020139446       12.7220757153
  C         7.5035598478        5.7301576718       13.6346556803
  C        11.1549593592        5.4912473703        4.4070765207
  C        11.3272373917        4.1370254278        3.7355495643
  S        11.2993384574        1.5381188607        3.9648181470
  H        11.6635899804        3.3307401631       12.8543423208
  H        11.2522123878        1.7645169605       12.9745209638
  C        13.1865772483        2.0827006918       13.7800990928
  N         7.9836370408        9.0299701916       11.8194956646
  C         7.4998671146        8.5142132887       13.9807876051
  C         7.0398158737        6.2738869206       14.7932137037
  H         7.4844065827        4.5911556128       13.5885965661
  C        12.4677044551        6.2095617493        4.5725638610
  C         9.9625166213        6.3345685485        3.8014812725
  C        11.5837528856        3.6262236253        2.4241681845
  C        11.6424788147        2.3047747709        2.4590093911
  H        13.5486936712        2.9979723724       14.1354204395
  H        13.9476036416        1.4865999442       13.3065210131
  C        12.4073538133        1.3902475599       14.8601538778
  S         7.8761297625       10.4788305913       12.5602074060
  N         7.6036669874        9.9074958057       14.0696777813
  C         7.1706675135        7.7149207417       15.0959371086
  H         7.0778254825        5.5755734296       15.6170781483
  H        12.3360272856        7.0071322316        5.3316586137
  H        12.7388641299        6.6193327175        3.5976385218
  C        13.6741871637        5.3781187053        4.9707793693
  H         9.6701538342        7.0570875898        4.5695455291
  H        10.3487796287        6.8841480737        2.9573454707
  C         8.7091620201        5.5264558363        3.3516332162
  H        11.6700666996        4.3745191221        1.6247451116
  C        12.0572448177        1.4993379539        1.2952231874
  H        11.5710398578        1.9965963722       15.1196702702
  H        12.1201706906        0.4031474760       14.4895390780
  C        13.1798886701        1.1352407646       16.1352892775
  C         6.8575641194        8.4235870281       16.3019002122
  H        13.4826440719        4.6818322200        5.7502744549
  H        14.0899758847        4.9191993900        4.0304652718
  C        14.6877336667        6.3277140671        5.5405572718
  H         8.3976338280        4.8598094922        4.1366939519
  H         8.9079751691        4.8743196209        2.5247480204
  C         7.6143860142        6.4958594186        2.8707117413
  C        12.0684946063        0.0910104178        1.1452073747
  C        12.3106799360        2.2146979342       -0.0092827521
  H        14.2081861368        0.8983222416       15.7965385232
  H        12.8677992677        0.2042759907       16.5834620253
  C        13.2311263332        2.3544317939       17.0379028389
  H         7.1868524262        9.4338925772       16.3043228747
  C         6.4633173047        7.8830716974       17.5288112825
  H        14.3408296305        6.8164260586        6.4516826998
  H        15.0209553502        7.0179671047        4.7893505195
  C        15.8707971308        5.4502267326        6.0245391505
  H         7.3470969624        7.2059071788        3.6159817320
  H         8.0552407212        7.0298309612        2.0428153800
  C         6.4068771194        5.7892075872        2.3334693386
  N        11.9135860721       -0.8127162141        2.2374279913
  C        12.3703546554       -0.5909566824       -0.0391252095
  C        12.4309344569        1.5448547854       -1.2029900752
  H        12.1112807727        3.2852442197       -0.0288702075
  H        12.3021705834        2.7684376649       17.3166704330
  H        13.7472099366        3.1381404517       16.4440660519
  H        13.8693146626        2.2189618712       17.8321574053
  S         6.1093547576        6.2305194229       17.8610834020
  C         6.3071954250        8.8558647449       18.6528097459
  H        15.5757927783        4.6509632462        6.6688683038
  H        16.2268422394        4.8774410378        5.1735362508
  C        17.0208764149        6.2402746448        6.7430706259
  H         5.8107414428        5.6602127687        3.2542048417
  H         6.6003753755        4.8219121120        1.8640834107
  C         5.6649589876        6.5981901800        1.2901922364
  S        12.0629026907       -2.3078793955        1.6994108883
  N        12.5268745884       -1.9273790722        0.2037194172
  C        12.5528034246        0.0468502452       -1.2426204864
  H        12.5533827736        2.1181431019       -2.1015636370
  C         5.8841327386        6.8584729961       19.5441940288
  N         5.9482107794        8.1791783819       19.7392672584
  O         6.4940800983       10.0835861018       18.5953999064
  H        17.5179426191        6.9351274061        6.0510518751
  H        16.5301342285        6.8659554553        7.4618703332
  C        18.0007316325        5.2967638851        7.4318390437
  H         6.3426473443        7.0582600825        0.5862172502
  H         4.9158725704        5.9416291079        0.7905746589
  C         4.7887577716        7.6842934842        1.8335112092
  C        12.8543985859       -0.7491849598       -2.3797758611
  S         5.6196180057        5.8468703067       20.9853133692
  C         5.7753082526        8.7893996592       21.0165091051
  H        17.5968351079        4.8857586775        8.3857769690
  H        18.2457278600        4.4811005307        6.8489947219
  C        19.2182617458        6.0170271229        7.9487913041
  H         5.2721338503        8.2172113247        2.6215761946
  H         3.9327420230        7.1135185223        2.1702243768
  C         4.4600918157        8.7240737540        0.7289501281
  H        12.5705386467       -1.8268421532       -2.3620539704
  C        13.5103010851       -0.4314519093       -3.5767111070
  H         5.0421889873        8.3330298903       21.6622524959
  H         5.4447629881        9.7922630273       20.8671755471
  C         7.0536737069        8.7475700795       21.8313320472
  H        19.6250909907        5.5998382641        8.8060407992
  H        19.0736870254        7.0842725305        8.1205096878
  C        20.2197114943        5.9059314592        6.7439820536
  H         5.4096309231        9.1214975207        0.3651170528
  H         3.9338741775        8.1888062817       -0.1420887787
  C         3.8000241256        9.9459380500        1.1793571803
  S        14.1041823127        1.1596172839       -4.0719790304
  C        13.5835258531       -1.4546145857       -4.6476301798
  H         7.2144922594        7.9327101880       22.5448429556
  H         7.1245746082        9.6344904907       22.4607060329
  H         7.8981023452        8.8396693244       21.1285328075
  H        19.8233089352        6.3507764188        5.9296374807
  H        21.1420976397        6.4923158101        6.9814365358
  H        20.5545107690        4.8423432880        6.5488764773
  H         4.4031374990       10.4387180915        1.9585648876
  H         3.8309929056       10.6173223327        0.3822243959
  H         2.8356684077        9.8403547913        1.5347108108
  C        14.4915486361        0.4467047122       -5.6420854708
  N        14.1584332599       -0.8767664038       -5.7266246908
  O        13.2452294136       -2.6154918835       -4.6108134015
  S        15.3312267502        1.2438269354       -6.9744971633
  C        14.2218278714       -1.6730782136       -7.0294109840
  H        14.3983575935       -2.7250297888       -6.7832006415
  H        15.0355049396       -1.3730474007       -7.7013898430
  C        12.8843586764       -1.5350625952       -7.8427981618
  H        12.2033325541       -2.2735664866       -7.4852940792
  H        12.9332421933       -1.7172350030       -8.9175910241
  H        12.4435095611       -0.5589537688       -7.6659071490
  H        -1.0147187862       14.7626827818       17.5135067093
  C        -2.0942467401       14.8178144003       17.2770129763
  H        -2.4257239771       15.8656794678       17.3778031760
  C        -2.9557731335       14.0455718449       18.2093710872
  C        -2.3986877461       14.4552550690       15.7616728985
  C        -2.2690018689       12.7717942592       18.7759244224
  H        -3.2583484386       14.6623950992       19.0995527863
  H        -3.8281460238       13.8850342065       17.6433955722
  H        -2.0255703797       13.4847870214       15.4674379943
  H        -3.4223365921       14.5083046633       15.4746432005
  H        -1.8388432554       15.1707141169       15.1421977355
  C        -1.4155042876       13.2098170132       19.9259149713
  H        -1.6359634154       12.3581850251       18.0105968397
  H        -2.9325397195       12.0119716407       19.1569734362
  C        -2.1491862025       13.2751224716       21.3150931274
  H        -0.6259027116       12.4788522347       19.9570730759
  H        -0.9636947053       14.1464198238       19.6905808437
  C        -1.2759702955       12.9093211132       22.5352701903
  H        -2.9326609967       12.5773791512       21.3131460622
  H        -2.5838912549       14.2823090855       21.3961481197
  C        -0.0429455500       13.7481305579       22.7450853533
  H        -1.9334095654       12.9450808253       23.3838262431
  H        -1.0501430266       11.8487586021       22.5122493351
  C         1.2383303825       13.1035189141       23.3773836413
  H         0.3105698966       14.1980355209       21.8172325907
  H        -0.3434821510       14.5000174782       23.4011399110
  C         1.5076772926       11.7787582427       22.7469224199
  C         0.8316157598       12.3802877490       24.6366997154
  C         2.4482484928       14.0359033978       23.5536327310
  C         1.3928981741       10.6400276877       23.5290007566
  C         1.8855691269       11.4183756368       21.4230216130
  C         0.8972940996       11.0199530420       24.7575202755
  C         0.2954265584       13.0123668924       25.7665202759
  H         2.5494997761       14.4957477771       22.5395689064
  H         2.0874460740       14.9420574076       24.0950146398
  C         3.7570692121       13.3676361514       24.1041884997
  S         1.5661342480        9.1610306906       22.7255816341
  C         2.0156225937       10.0781590933       21.3232601901
  H         2.0222407021       12.1952839363       20.7355316152
  C         0.4386634590       10.3822181494       25.8992369761
  H         0.3724394668       14.0611912225       25.8909464072
  C        -0.0533259793       12.3934300600       26.9463812867
  H         4.1067287274       12.6946823033       23.3358815834
  H         3.5094842607       12.8420082308       24.9623868582
  C         4.8548266154       14.3752212383       24.4560575084
  C         2.3733182725        9.3840857209       20.0383303615
  C        -0.0295497230       11.0390374500       27.0568426370
  H         0.3068124011        9.3114118748       25.8703778087
  C        -0.4417721360       12.7886211264       28.1863082531
  H         5.5130738193       13.8234041138       25.0366302695
  H         4.4666536296       15.1384817083       25.1102716860
  C         5.5133679098       14.9425531091       23.2061488242
  C         2.2768281012        8.0053321596       19.7057714559
  C         2.8879385682       10.2231878137       18.9545312250
  C        -0.4475990161       10.2927178538       28.2920058315
  C        -0.6825643926       11.6755947479       28.9767372943
  S        -0.6085326004       14.2821216028       28.9785354349
  H         6.1259898557       15.8764382310       23.3870791537
  H         4.7208494612       15.3078077507       22.5355897497
  C         6.3785525438       13.8736416374       22.6039981555
  N         1.7890261050        7.0643011915       20.6210517519
  C         2.4904555638        7.4282513886       18.4194228703
  C         3.2041441736        9.6411119170       17.7076204098
  H         3.1733242238       11.2514740211       19.1862225787
  C         0.6051108057        9.3828702424       28.9505181691
  C        -1.7824711894        9.5599512031       27.9968387552
  C        -0.9635561156       12.1502410864       30.3044284684
  C        -0.9916178519       13.5284589286       30.4724995040
  H         7.4602474330       14.0987647452       22.6022322124
  H         6.5831849482       12.8986198159       23.0968560562
  C         6.0057777290       13.7081452210       21.1479673579
  S         1.8400022567        5.5768526040       19.8589097690
  N         2.3596737437        6.0481594408       18.3491000869
  C         2.9744056522        8.2166832484       17.3749055169
  H         3.5935245395       10.3100246936       16.9462782544
  H         1.0566794579        8.6115387760       28.3234370017
  H         0.1160329640        8.7104459612       29.6779298589
  C         1.7497733410       10.3187169292       29.4963124794
  H        -1.6780682625        8.7788040903       27.2462739889
  H        -2.2282511640        9.1154918462       28.9051036325
  C        -2.9027399595       10.3386262419       27.3733023495
  H        -1.1091795179       11.4405543678       31.0834115088
  C        -1.3921246241       14.2684345487       31.7185581175
  H         6.1220936049       14.6275128527       20.7597239678
  H         4.9762028820       13.2056351634       21.0997167973
  C         6.8603591112       12.7908224095       20.3712362792
  C         3.1879862046        7.5803233753       16.1305780612
  H         1.9577071159       11.1743373290       28.8410547688
  H         1.3954245458       10.7091689853       30.4167155396
  C         2.9739265376        9.6505580859       29.9825595151
  H        -2.5980668698       10.5961718022       26.2743843409
  H        -2.9114079913       11.3090708362       27.8665617142
  C        -4.3419359225        9.7535580645       27.4961032521
  C        -1.5639543666       15.6399262281       31.8705248308
  C        -1.6555160789       13.4627193160       32.9336168269
  H         7.6579643945       12.4467895396       20.9862056536
  H         6.1044948358       12.0203965387       20.1547781548
  C         7.3686926952       13.4974134270       19.0494869578
  H         3.0352260839        6.4995855418       16.1029251407
  C         3.5985508170        8.0012521460       14.8956427420
  H         3.4420641314        9.0597063524       29.1911451302
  H         2.6707774612        8.9082963956       30.7196445669
  C         3.9783817922       10.5997178601       30.5260070297
  H        -4.4469453545        8.7016466911       27.1283500812
  H        -4.6294049223        9.7317021163       28.5880569939
  C        -5.3208282128       10.6949488419       26.8951750544
  N        -1.4342284641       16.5992889376       30.9163610696
  C        -1.8670978437       16.2138919644       33.1135438104
  C        -2.0101550570       14.0140319628       34.0865853503
  H        -1.6477197610       12.3783016547       32.8318549755
  H         6.6385108706       14.0292782779       18.5432030402
  H         8.1600718013       14.2164136955       19.3022872642
  H         7.7127429469       12.6199668982       18.4583573885
  S         3.8066668629        9.6582445516       14.4987554156
  C         3.7747983423        6.9863569018       13.7764109296
  H         3.9642326219       11.5946150793       30.0579621650
  H         3.7141164794       10.9555115723       31.5415763892
  C         5.3532813481        9.8957871282       30.5983801549
  H        -4.8073595985       11.4296265589       26.2494805769
  H        -5.9107962712       11.2793698310       27.5748118729
  C        -6.3567777591        9.9935229983       26.0332567205
  S        -1.7201825903       18.0289861753       31.5707825838
  N        -2.0933496048       17.5384919974       33.0880152530
  C        -2.0328374471       15.4497601033       34.2594497372
  H        -2.2083899316       13.4324524117       34.9665561392
  C         4.2421577102        9.0033442355       12.9095637009
  N         4.2347136876        7.6557380536       12.6927733135
  O         3.5909225062        5.7749595696       13.9280453927
  H         6.0760118682       10.5955305810       30.9089193926
  H         5.7849408902        9.5911573820       29.5800371726
  C         5.4544551171        8.6306939717       31.4988117882
  H        -5.8511350409        9.2986879327       25.4647349160
  H        -7.1029205681        9.3921579873       26.6390533982
  C        -7.0779619364       11.0593776872       25.1533783394
  C        -2.3263021205       16.1234864812       35.4951058880
  S         4.6531167813       10.0003318605       11.5537931681
  C         4.3843762441        6.9626629607       11.3906329865
  H         5.3317350055        8.8633978518       32.5759303841
  H         4.7192119380        7.9344182165       31.2022396076
  C         6.7578042428        7.9057291078       31.3241042225
  H        -6.4974032541       11.4762524865       24.3014091126
  H        -7.2386527881       11.8183077581       25.8632635991
  C        -8.4865416740       10.6659894077       24.5955140221
  H        -2.0159760669       17.1067023334       35.5938179387
  C        -2.9853813114       15.7256357437       36.6372585444
  H         5.0813717880        7.5431589580       10.9512758876
  H         4.7343096836        5.9481613335       11.3981858666
  C         3.0798988751        6.8615208159       10.6742400592
  H         6.9760601017        7.2644048201       32.1840004963
  H         7.5945777525        8.5615094727       31.2283964367
  C         6.7191323739        7.1445809245       30.0049110284
  H        -8.8244443621       11.3468809073       23.7791908936
  H        -8.3319259719        9.6757180402       24.1488078791
  C        -9.5132534106       10.6676821596       25.7241794912
  S        -3.8378327980       14.2780799557       36.9363280181
  C        -3.0682386391       16.7067536414       37.7172810017
  H         2.3684815979        7.5135408934       11.1468381243
  H         3.1458827780        7.1498740721        9.5677702267
  H         2.7151656100        5.8285283936       10.6748414925
  H         5.9312625274        7.5446242159       29.3530449545
  H         6.2608685947        6.1598559919       30.1880962004
  H         7.7393359324        6.9905849802       29.5607281864
  H        -9.5589726686       11.5618255429       26.2535016970
  H        -9.2719866479        9.7928557617       26.3524902890
  H       -10.5016031444       10.4038896902       25.3484036473
  C        -4.2082350263       14.8512003037       38.5139557918
  N        -3.6921948834       16.0910667477       38.7626432437
  O        -2.5568780653       17.8573061385       37.7845660607
  S        -5.0825026999       13.9872722907       39.8192169024
  C        -3.8377580849       16.9289774417       40.0395558437
  H        -4.1689629356       17.9338720081       39.7097693682
  H        -4.6714308813       16.6409572573       40.6592913154
  C        -2.6305078197       16.8114278181       40.9818831924
  H        -2.8469598676       17.1030130791       42.0723995085
  H        -2.2579592833       15.8010126860       40.9464182209
  H        -1.8965726076       17.5518267128       40.4899968995
