352
i=
  H         4.3765815337        1.3873090307       13.0335353074
  C         3.7068542623        2.2420546154       12.8787924408
  H         4.2841871834        3.1823187320       12.9280746854
  C         2.8675842735        2.1375434584       11.5620519318
  C         2.8219460329        2.2344777281       14.0085672970
  C         3.6885643136        2.4793039902       10.3240371021
  H         1.9786008394        2.7161518812       11.6644664442
  H         2.4213509188        1.2001073772       11.4307476494
  H         3.3929642694        2.2532137064       14.9596521120
  H         2.1733312737        1.3571068869       14.0829111779
  H         2.2464665550        3.1726067522       13.9624112474
  C         4.4687152085        1.2983486586        9.7420333586
  H         2.8642318776        2.6288941398        9.6149867805
  H         4.2352595485        3.4493005092       10.4574177132
  C         4.9705360519        1.5768755141        8.3369129207
  H         3.7968958764        0.5254714981        9.7973350160
  H         5.3206454972        1.0928223957       10.4292795731
  C         6.1779448170        2.6216608232        8.3652082064
  H         4.1885022094        1.7794097556        7.6568145854
  H         5.3256491510        0.5671105054        8.0217797044
  C         7.4993928632        1.9590024928        8.7898546504
  H         6.2895329431        2.9683849914        7.2844184176
  H         6.0156666530        3.5395460885        8.9729482611
  C         8.6988698651        2.9732347749        8.9709826500
  H         7.8922486095        1.1416689053        8.1647577629
  H         7.4057119279        1.5829089851        9.7760446309
  C         8.3065339119        4.2958802900        9.6582377448
  C         9.1287478424        3.7042241697        7.7673785502
  C         9.8666725747        2.2681031592        9.6731857140
  C         8.5705999292        5.4121087067        8.9040903126
  C         7.8892405259        4.6327112940       10.9554385671
  C         9.0962478169        5.0776679431        7.6805605853
  C         9.5205983662        3.0943697337        6.5604637080
  H         9.4868222600        1.9522955398       10.5935376861
  H        10.2923827829        1.3826968097        9.1232632300
  C        11.1182224050        3.2052669761        9.9512959988
  S         8.3035781422        6.9065663313        9.6448750323
  C         7.8593756369        5.9987664370       11.0963092761
  H         7.6967318074        3.8848106659       11.6882145864
  C         9.4884506185        5.6461957274        6.5396226150
  H         9.5305470857        2.0374147122        6.4727798397
  C         9.9490001477        3.7518655344        5.4167770288
  H        10.8601512079        4.1980940050       10.2067681980
  H        11.6337539265        3.2434637722        8.9425946781
  C        12.1077013275        2.7239474244       11.0549900830
  C         7.5126576630        6.6382857914       12.3934854967
  C         9.9512254489        5.1225602751        5.3710002932
  H         9.5815793722        6.6709527941        6.5673862405
  C        10.3784449541        3.4969277237        4.1751850509
  H        13.0444926776        3.2761950799       11.0603125604
  H        12.4815262028        1.7329509866       10.8308324171
  C        11.5167566903        2.7661583178       12.4336515278
  C         7.5870180626        7.9901240805       12.7406175195
  C         7.1448791814        5.7062047093       13.5065212056
  C        10.4268108946        5.8897214612        4.1197029423
  C        10.6317328462        4.5914089494        3.3867153063
  S        10.7025951626        2.0006798214        3.4131667080
  H        11.4735197429        3.7541661191       12.8317579361
  H        10.5097621486        2.4088839031       12.5532983424
  C        12.4568805403        2.0800865914       13.4542573453
  N         8.0097991838        8.9750897312       11.9044486817
  C         7.3214482378        8.4974075175       14.0286490007
  C         6.9353397005        6.1973776653       14.7936017096
  H         6.8879309975        4.6795153275       13.3005474257
  C        11.7372000190        6.6793322114        4.4957412436
  C         9.2993992992        6.8143310928        3.5150247861
  C        11.0994844696        4.1828275328        2.0900444973
  C        11.0691522239        2.8146033169        1.9339214373
  H        13.4626738226        2.4483091395       13.1505880823
  H        12.4374689826        0.9821071951       13.4707117761
  C        12.0585268564        2.4421594996       14.9606898330
  S         7.7797946100       10.4328407619       12.5466385378
  N         7.4086005913        9.9454882680       14.0973781458
  C         7.0712849621        7.6280345258       15.1248202481
  H         6.6083591850        5.5088572468       15.5488192337
  H        11.5250127379        7.4952991308        5.2085417866
  H        11.9038342177        7.1266456236        3.5360932694
  C        12.9694995509        5.8094463717        4.8857789158
  H         9.0461909026        7.5117408328        4.2802069131
  H         9.7418855705        7.2261837912        2.6469531062
  C         8.1004530882        5.9470136089        3.0286665962
  H        11.3202040217        4.9595341479        1.3627048671
  C        11.4385406373        1.9421224471        0.6914663240
  H        12.2280186158        3.5271961506       15.1189586242
  H        10.9545718804        2.3278571602       15.1844364255
  C        12.9831163561        1.7834295692       15.9062161377
  C         6.8668884652        8.2680589150       16.3476309616
  H        12.6879354298        5.3830491074        5.8249247595
  H        13.2530662721        4.9804581379        4.3262031260
  C        14.1065464716        6.7595925992        5.2800144026
  H         7.7745256817        5.3451246619        3.8446167631
  H         8.5054062106        5.2437947683        2.3072920775
  C         6.9468640663        6.7600411649        2.4390037201
  C        11.7350038827        0.5833265927        0.6399390825
  C        11.6628412138        2.7688311023       -0.5661832577
  H        13.9979753435        2.0943937687       15.5651251402
  H        12.9205633885        0.7044000710       15.8262298987
  C        12.5929324649        2.2501147708       17.3145259986
  H         6.7693843938        9.3587833023       16.3271234666
  C         6.6161611226        7.7389697664       17.6234251428
  H        13.8346441364        7.3011725303        6.2134156994
  H        14.4326247324        7.4350072340        4.4825307755
  C        15.3604741034        5.8772035795        5.5432136332
  H         6.6899887247        7.5937648713        3.1045156397
  H         7.3538604476        7.3240839560        1.6232679611
  C         5.7018722152        5.9696294695        2.1258389323
  N        11.4251215878       -0.3305485553        1.6370868013
  C        12.0301743205       -0.0484036688       -0.5493306929
  C        11.9894957231        2.0496100561       -1.7403947578
  H        11.5459585052        3.8498718945       -0.6446209860
  H        13.0017097967        3.2471209919       17.6208303575
  H        13.0775347386        1.4672560559       17.9603924959
  H        11.5333058973        2.2600629791       17.5085060533
  S         6.2918695329        6.1014331908       17.9122138733
  C         6.5251995131        8.6859716631       18.7510909286
  H        14.9554766988        4.9141333940        5.8163423153
  H        15.9574132362        5.9704177862        4.6914652818
  C        16.1323266791        6.3536453277        6.8149746888
  H         5.1605275592        5.8062188995        3.0600220582
  H         6.1160903529        4.9733333841        1.8484385578
  C         4.9386782917        6.6504830554        1.0214118387
  S        11.8399362394       -1.8062666776        1.1090426937
  N        12.1619494998       -1.4365430892       -0.4273969698
  C        12.2146584914        0.6290080641       -1.7468757879
  H        11.9064294460        2.5276140358       -2.6697995921
  C         5.9512820094        6.6666572882       19.5632632193
  N         6.0621245147        8.0214798787       19.8314409353
  O         6.6594415808        9.9275298627       18.6660887671
  H        16.3025560830        7.4232958345        6.6487021507
  H        15.5764362451        6.2704223764        7.7136666703
  C        17.4018803385        5.5999538323        6.9900237530
  H         5.5755843700        7.0565941889        0.2272853474
  H         4.2295006816        5.9518672419        0.7163100882
  C         4.0891990016        7.8664135557        1.5142444289
  C        12.5772153401       -0.1572859483       -2.8746229239
  S         5.4122661981        5.7350485449       20.9066842055
  C         5.7768721638        8.7449573243       21.1006351370
  H        17.2703814446        5.2134082146        8.0222082626
  H        17.3521186508        4.7242226579        6.3945992596
  C        18.6552324645        6.4471963194        6.8829362541
  H         4.5323591248        8.1446337162        2.4792466511
  H         3.0300604819        7.6076980934        1.6569405593
  C         3.9857857923        8.9866977212        0.4923683618
  H        12.2674393410       -1.2236023714       -2.8131368307
  C        13.1434033943        0.1966280150       -4.0825781086
  H         5.0414943309        8.1207552688       21.6371729156
  H         5.4651710762        9.7050712912       20.9512128938
  C         7.0594901509        8.8782360695       21.9060112642
  H        19.3843810864        6.2149474868        7.6703778557
  H        18.4801773368        7.4760393533        7.0894740551
  C        19.1769465869        6.2634197959        5.4654911512
  H         4.9553430098        8.9840537692       -0.1128979359
  H         3.1753753765        8.7248886191       -0.2222825616
  C         3.7501388356       10.2554835816        1.1973034756
  S        13.6183725068        1.6902651296       -4.5798116357
  C        13.2864331513       -0.8420421182       -5.1582669527
  H         7.9720925376        9.0168452604       21.2570571483
  H         7.2517536184        7.9934082069       22.4701809132
  H         7.0605533481        9.7199572690       22.6085718996
  H        20.1998040921        5.7991092614        5.4537058942
  H        18.5218165623        5.8217345579        4.7334253504
  H        19.1710241968        7.2634656311        5.0674667730
  H         3.6437434172       11.1704434103        0.5700742051
  H         2.8516593697       10.3289480014        1.7770476597
  H         4.5862330138       10.4741014708        1.8540029867
  C        13.9741184607        1.0363397979       -6.1363964497
  N        13.8025164304       -0.2868201283       -6.2488899568
  O        13.0753383902       -2.0315881082       -5.0231319458
  S        14.6265135342        1.9894899231       -7.4235737573
  C        14.0335919939       -1.0739437317       -7.4281245376
  H        14.4237641197       -2.0623887365       -7.2646308992
  H        14.8290369067       -0.6552778001       -7.9625187027
  C        12.7619843880       -1.1800652637       -8.3142304605
  H        11.9231003161       -1.7001440462       -7.8214258023
  H        13.0799614501       -1.5740742231       -9.2555906774
  H        12.3890551578       -0.2000110146       -8.6393689703
  H        -2.5789944524       14.7476141675       16.1585230824
  C        -2.6611952461       13.6351263847       16.2072304958
  H        -3.6760197061       13.3573846443       16.4099557397
  C        -1.8404120307       13.2038495627       17.4026169506
  C        -2.3337164007       13.1046121535       14.8046460423
  C        -2.5022897083       13.4984409746       18.7570509891
  H        -1.7752566875       12.1545954622       17.4244760107
  H        -0.8295211232       13.6211666316       17.3511207857
  H        -3.2593563056       12.9611749787       14.2866889576
  H        -1.7871199637       13.7167607115       14.1311743564
  H        -1.7930676108       12.1318580546       14.8593433203
  C        -1.8803908662       12.8372663793       19.9166043307
  H        -3.5739196019       13.4313798978       18.7566706059
  H        -2.4572796285       14.5683749612       18.8975627202
  C        -2.3618102330       13.3768680071       21.2662760641
  H        -1.9791373433       11.7076287986       19.8746761107
  H        -0.7465283018       13.0086326820       19.8161432579
  C        -1.4157239382       12.8577904868       22.3911063723
  H        -3.4250912684       13.0065118301       21.3968109358
  H        -2.3960566871       14.4388745252       21.3438424923
  C        -0.1915976054       13.8350297461       22.5803077316
  H        -1.9569275750       12.7543805456       23.3489950044
  H        -1.1771911614       11.8672698462       22.0955448328
  C         0.9962239577       13.0826282946       23.3179969765
  H         0.0784898240       14.1312203616       21.5855017272
  H        -0.4764053162       14.7016844282       23.1168903340
  C         1.3126061224       11.7725736303       22.5315501903
  C         0.5416998025       12.2805002230       24.5167883309
  C         2.2257772289       14.0199208346       23.5073306478
  C         1.0631057231       10.6196631479       23.2870567030
  C         1.7839030834       11.5184307653       21.2502890329
  C         0.6127541320       10.9660044174       24.5316557382
  C         0.1215348466       12.8809769804       25.6886205789
  H         2.3540850443       14.6544360493       22.5973227079
  H         1.8821947334       14.6782032156       24.3075768511
  C         3.5537967959       13.3655068795       23.8752140809
  S         1.4684040769        9.2028539901       22.4639195690
  C         1.9066867688       10.1059559005       21.0799814464
  H         2.1851682611       12.3235781130       20.6310256794
  C         0.2639231172       10.2472258809       25.6760089841
  H         0.1222654459       13.8908677630       25.6055794772
  C        -0.2532568762       12.1582784363       26.7872570136
  H         3.8198190760       12.5891303143       23.1783517959
  H         3.4689522299       12.9734881218       24.9176541102
  C         4.8014496563       14.3407412000       23.8359510204
  C         2.5638062809        9.3791498492       19.9675826628
  C        -0.1961438439       10.7958915007       26.8054985005
  H         0.4109068269        9.1540382830       25.6365395712
  C        -0.6275450550       12.4294337070       28.0831037356
  H         5.5903411892       13.8058777174       24.4277502730
  H         4.7029208289       15.2239381639       24.4332468419
  C         5.2919913676       14.7033067311       22.4537753059
  C         2.5976894714        7.9249743740       19.7016202191
  C         2.9936667205       10.2369912778       18.8465687462
  C        -0.6521658701       10.0390572764       28.0573343500
  C        -0.9100470107       11.3359956180       28.8418022788
  S        -0.8240386374       13.9880993525       28.8754045699
  H         5.9466348860       15.6028436451       22.6684301006
  H         4.5354520322       15.0673188719       21.7792244159
  C         6.0653307103       13.5993648576       21.7070510025
  N         2.2456409684        6.9460053627       20.5984495928
  C         2.8994440193        7.4026070450       18.4454204760
  C         3.4647524406        9.6486543978       17.6412533358
  H         3.1218111444       11.3181031340       18.9369138944
  C         0.5014640595        9.2028431764       28.6153355131
  C        -2.0330819229        9.3096302427       27.8652982087
  C        -1.3666993921       11.7447776749       30.1371746103
  C        -1.3407828435       13.1256567176       30.3126247508
  H         6.9380384218       14.0735304591       21.4646044208
  H         6.3363332730       12.7770345399       22.4063640419
  C         5.2764254502       13.1433594649       20.5080629089
  S         2.3161408539        5.4847003201       19.9843566214
  N         2.8241783046        6.0174224190       18.4769668633
  C         3.2934246566        8.1755365729       17.3563641530
  H         3.7524826346       10.3075824624       16.7952254200
  H         0.9943237467        8.6065699421       27.8118832186
  H         0.2170606551        8.5212248556       29.3959453829
  C         1.6719806193       10.1064974951       29.0090528328
  H        -1.8763426520        8.3982111882       27.2432454088
  H        -2.3064920453        8.8803751314       28.8959788882
  C        -3.2257244965       10.1447109437       27.4103298480
  H        -1.4893053271       10.9692016083       30.9185966306
  C        -1.6828438183       13.7490424150       31.6035851928
  H         4.2239860749       13.2250043879       20.6480547711
  H         5.4968365542       12.1088469887       20.4390302772
  C         5.7045399449       13.9639490151       19.3202587473
  C         3.4230437243        7.3606806620       16.1174110986
  H         2.0599651449       10.7692844777       28.2670742718
  H         1.4662403953       10.7961446213       29.8120880183
  C         2.9599551948        9.2457661038       29.4365104783
  H        -2.9333870113       10.6313358501       26.4796864101
  H        -3.4310963830       10.9301212383       28.1166909482
  C        -4.4380489240        9.3865502194       26.9636918393
  C        -1.9032400932       15.1090718455       31.6957550762
  C        -1.7349159953       12.9024134860       32.8794966811
  H         4.8941782349       13.9152366554       18.5486908814
  H         5.7829383135       14.9991557675       19.7096117747
  C         6.8853019316       13.3001172053       18.5046770351
  H         3.3842281776        6.2734662895       16.2254260416
  C         3.7581571481        7.7275677728       14.8564373976
  H         3.2932755897        8.6606186456       28.6052307335
  H         2.6834015987        8.4826787059       30.1454921092
  C         4.1197339765       10.0154418696       30.0915004587
  H        -4.1935031982        8.5287048185       26.3511232777
  H        -4.9576438674        8.9414665969       27.8275603259
  C        -5.5835638738       10.2710054667       26.5131814111
  N        -1.8825703067       16.0099638025       30.6211938936
  C        -2.3140638385       15.6215729819       32.9014863863
  C        -2.0636090854       13.4108375865       34.1217779499
  H        -1.4055180229       11.9205019608       32.7836824999
  H         6.4093922466       12.7048657200       17.7504685369
  H         7.6449201952       13.9930849457       18.1140337695
  H         7.3330207037       12.5281342914       19.1496697235
  S         4.0687471598        9.3141765011       14.3370344317
  C         3.7418418712        6.6884905600       13.8003779194
  H         4.2887483905       11.0169920000       29.7919039926
  H         4.0002937014       10.0933160635       31.2034088171
  C         5.4040044351        9.3000509389       29.8503577363
  H        -5.1489148894       11.1049772980       25.9254414817
  H        -6.1230794584       10.7047515119       27.3327798461
  C        -6.4892948394        9.5428419625       25.6391748654
  S        -2.1389753971       17.4846210340       31.2839549281
  N        -2.4824882867       16.9871943113       32.8381786338
  C        -2.3968041744       14.8483366652       34.1313155825
  H        -1.9899606992       12.8471254670       34.9782076580
  C         4.1679027089        8.6170216440       12.6942705277
  N         4.1099695538        7.2501549448       12.6126089237
  O         3.4614314886        5.4781733627       14.0639211133
  H         6.2534798883       10.0185886047       29.9902714431
  H         5.5756486376        9.0602929045       28.7857857829
  C         5.7263199760        8.0512167163       30.6077302166
  H        -5.9400167009        9.1568261018       24.7447184694
  H        -6.8334073002        8.6248446985       26.0578890128
  C        -7.6746103107       10.3905939175       25.2236014776
  C        -2.7188332921       15.5184109937       35.3945446182
  S         4.2792979803        9.6307196931       11.1699704705
  C         4.1820355749        6.5566893887       11.3032150499
  H         6.2580708064        8.3485436655       31.4736719229
  H         4.7846472782        7.6145959931       30.9733487565
  C         6.5799530993        7.0071261341       29.8924788032
  H        -7.4711483858       10.7798287674       24.2229189171
  H        -7.6868383632       11.2773668769       25.9892359466
  C        -9.0639970639        9.6322929566       25.2088827190
  H        -2.6534186785       16.5879715165       35.3539823989
  C        -3.1698375700       15.0894246086       36.6146243301
  H         4.8625150519        7.0391686691       10.5952655317
  H         4.5888177926        5.5412047189       11.5352936136
  C         2.8324481314        6.4774814676       10.6126598540
  H         7.3695357583        7.5422404497       29.2904175800
  H         6.0750025024        6.4916747289       29.0970795862
  C         7.1115228014        5.9239650242       30.8069011954
  H        -9.7077865842       10.2231880875       24.4472955964
  H        -8.8862299830        8.5951527778       24.7901970005
  C        -9.7532865846        9.5659802618       26.6415662288
  S        -3.6339779160       13.5230288497       37.0218059301
  C        -3.3235711596       16.0640131235       37.7264884424
  H         2.8647960705        6.2349003392        9.5680678114
  H         2.1689489632        5.8435509639       11.1391513055
  H         2.3409653563        7.3871362940       10.5174762783
  H         7.9970326234        6.2852899168       31.3144923139
  H         7.3406523548        5.0142785312       30.2345964318
  H         6.3331840925        5.6457584503       31.5578565093
  H        -8.9052564398        9.6241023602       27.2939278948
  H       -10.3714317474        8.6611919855       26.7261800572
  H       -10.4103382835       10.4055475062       26.7380274482
  C        -4.0168090255       14.1798170449       38.6148901647
  N        -3.8593517710       15.4510958632       38.7370435918
  O        -2.8011565852       17.1780415040       37.6566206489
  S        -4.6237089132       13.2491901054       39.9796895565
  C        -3.9999944422       16.1675247243       39.9400854536
  H        -4.0116642968       17.2317589803       39.6898727648
  H        -4.8803200206       15.7250029434       40.4736604380
  C        -2.7008930451       15.9738610878       40.7095942545
  H        -1.9887090606       15.3941667543       40.1482631389
  H        -2.2778579688       16.9808801000       40.9420259023
  H        -2.8274080418       15.3913324910       41.6233240164
