352
i=
  H         2.6556740213        2.9466978461       12.0786202869
  C         3.2435846645        2.1455963111       12.5695979720
  H         2.6014430785        1.2504540770       12.6592516918
  C         4.4395539901        1.7701944273       11.7042004419
  C         3.5997842767        2.5406676346       13.9768258414
  C         4.1082816911        1.8630543897       10.2486035065
  H         4.7352164367        0.7226635386       11.9345283830
  H         5.3068168936        2.3871869833       11.8595914855
  H         2.8275252629        3.0137198118       14.6576423023
  H         4.4362644433        3.1948046918       13.9477290626
  H         3.7986951944        1.6699051043       14.5164525987
  C         5.0253924590        1.0372883036        9.4626315403
  H         3.0808488249        1.5792307583       10.2301867426
  H         4.2435212299        2.8962452496        9.8947432622
  C         5.5682971884        1.6417942705        8.1856942415
  H         4.6252319092        0.1123511402        9.1338128162
  H         5.8819483218        0.8672216034       10.1039919478
  C         6.8618705283        2.4705629238        8.4902636396
  H         4.8237879419        2.2611590500        7.7674992680
  H         5.7047367305        0.7910659336        7.5585848483
  C         8.0875967978        1.6840036847        8.9083196548
  H         7.0783622558        2.9633486342        7.5748183447
  H         6.5976328572        3.1277494307        9.2472688506
  C         9.3362206699        2.6039913201        9.0780750542
  H         8.2452295452        0.8138449420        8.2173087109
  H         7.9174590507        1.2458923518        9.9226302863
  C         8.8535978874        3.9511016988        9.6769587704
  C         9.6855439971        3.3342287777        7.8414080704
  C        10.5044496645        1.9157779663        9.9613781307
  C         9.1215730098        5.0473637301        8.9014846155
  C         8.5587809414        4.3636244662       11.0024786341
  C         9.6166254189        4.6454415154        7.6795165804
  C        10.1565775527        2.7275801335        6.7108282982
  H        10.1439038167        1.4933908068       10.9012587907
  H        10.8693875911        1.0365953194        9.4890621931
  C        11.6163697762        2.8807021698       10.2653932323
  S         8.7260413537        6.5633135212        9.6936089447
  C         8.4300848237        5.7147299622       11.1182301542
  H         8.3830084960        3.5994807927       11.7136433833
  C        10.0452637293        5.2306139686        6.5002139347
  H        10.1955634439        1.6161544103        6.7900122014
  C        10.5554834602        3.2639924306        5.5376490390
  H        11.1507057377        3.7101990986       10.7836590523
  H        12.2337425134        3.2195254420        9.3489121430
  C        12.7777608804        2.3392454300       11.1251407990
  C         7.8018300741        6.4068943749       12.3012702208
  C        10.5818124865        4.6150234587        5.4026859061
  H        10.1028818138        6.2303353577        6.4104657199
  C        11.0217900202        2.8296331378        4.3223264340
  H        13.6098804000        3.0478459285       11.1013003170
  H        13.0976151870        1.4203527166       10.6506011875
  C        12.3089026471        2.0612837768       12.5708004019
  C         7.8281332164        7.7971780851       12.5597124508
  C         7.4693288124        5.5746920685       13.4690850750
  C        11.0104638655        5.2410756462        4.1103340716
  C        11.3302111123        3.8843446512        3.5119972337
  S        11.1993153863        1.2457991890        3.6446977646
  H        11.5715983308        2.8668089108       12.7771339490
  H        11.7181665855        1.1576336099       12.7076536490
  C        13.5000388298        2.2070991775       13.5411682281
  N         8.2336241090        8.8099876683       11.6081235378
  C         7.4924693693        8.3226185864       13.8079005609
  C         7.0603576601        6.0779753379       14.7058540528
  H         7.3162925498        4.5370310005       13.2745649887
  C        12.3495351751        5.9494084391        4.2144302872
  C         9.9019459592        6.0045601478        3.3784158765
  C        11.6476043134        3.3588291783        2.2148889210
  C        11.7145181013        1.9607727708        2.1895868873
  H        14.2616825740        2.9603093740       13.1920591437
  H        13.9792229529        1.2924208275       13.6646353696
  C        12.9269097205        2.3389475714       14.9772652688
  S         8.0272963619       10.2126790283       12.3944022063
  N         7.4918073316        9.6731587700       13.8210246352
  C         7.2080086143        7.5100909415       14.9737398274
  H         6.7078010881        5.3759558238       15.4622061679
  H        12.2679443690        6.8652533393        4.7947461139
  H        12.6393201400        6.3547167982        3.2026161589
  C        13.5802107629        5.2041049750        4.8540827833
  H         9.7472707491        6.9929053961        3.8424828075
  H        10.1686768435        6.2256990938        2.3802793268
  C         8.5552320972        5.2250412299        3.2051319994
  H        11.8797397711        4.0060973324        1.3743150611
  C        11.9350305653        1.1579371248        0.9223931966
  H        12.6206329220        3.3588451061       15.2191914469
  H        12.0957965103        1.6992835136       15.1051039382
  C        13.9107929579        1.9477634096       15.9925629184
  C         7.0507873374        8.1983003863       16.2105953939
  H        13.2251150859        4.8060358656        5.8706199813
  H        13.7208891712        4.3292259447        4.2677747755
  C        14.7966886755        6.1088577686        4.8554773207
  H         8.2716583189        5.3565280615        4.2225177431
  H         8.6098938390        4.1473684943        2.9909578925
  C         7.7348905991        5.9088770355        2.1908155486
  C        12.0293321122       -0.2246991078        0.8487728482
  C        12.0744433328        1.9104060908       -0.3688915505
  H        14.9111582585        2.2443079760       15.6538254192
  H        13.8518107186        0.8857823586       16.1750273218
  C        13.6178488622        2.5813430267       17.3839372608
  H         7.2824688943        9.2234243865       16.1116618228
  C         6.9188694923        7.7129878429       17.4888588949
  H        14.5722952641        7.0041587491        5.4695430437
  H        15.0436164892        6.3519091711        3.8152036219
  C        15.9747479213        5.3389392008        5.3446654549
  H         7.6936577857        6.9062638283        2.4825861214
  H         8.2888924929        5.9372210053        1.2700118973
  C         6.3784924448        5.2547706040        2.0507218362
  N        11.9440961615       -1.0822316958        1.9276961678
  C        12.2783128966       -0.8994673271       -0.3240707137
  C        12.2187161682        1.1916868596       -1.5243893106
  H        11.9850072195        3.0262081664       -0.3954650884
  H        14.5153820087        3.1763786723       17.5874939422
  H        13.5813350744        1.8632151296       18.1588041303
  H        12.8340987436        3.3546337089       17.4791998877
  S         6.7483473591        6.0410556129       18.0173536618
  C         6.7070235379        8.7555602441       18.5666333239
  H        15.8391712168        4.3572509238        4.9135797153
  H        16.7736836197        5.7887369880        4.8196980411
  C        16.0312895193        5.2203331947        6.9040048014
  H         6.1746640263        4.5607772384        2.8514352905
  H         6.1867519997        4.6864373806        1.1525071045
  C         5.2216021074        6.3164070150        2.1703134129
  S        11.9787934339       -2.6170374876        1.3779658103
  N        12.1950869485       -2.2522316532       -0.1769447798
  C        12.5215937788       -0.2233541490       -1.4933488793
  H        12.2481150357        1.6913862578       -2.4630081124
  C         6.2932501538        6.7520898377       19.5528473680
  N         6.3572741166        8.1084964592       19.6859872270
  O         6.6844890575        9.9981370239       18.3775112499
  H        15.9397622880        6.2381194192        7.3672675917
  H        15.3256049118        4.5414046487        7.4129720873
  C        17.4536761818        4.7590981559        7.4974072796
  H         4.2772240706        5.8031162961        2.4570627979
  H         5.4753182218        7.0707398173        2.9193231688
  C         4.9769576555        7.1395740473        0.9165611752
  C        12.7416326638       -0.9677744998       -2.6881762466
  S         5.9346884737        5.7384984200       21.0153098360
  C         6.3111594316        8.8987535214       20.8816833777
  H        17.3455570143        4.6630808652        8.5890166557
  H        17.6928497587        3.7712604415        7.2542302865
  C        18.5385571525        5.7629275984        7.2366285934
  H         4.6148504889        6.4167107510        0.2319180964
  H         5.8857436227        7.4609002048        0.4708863624
  C         3.9271002006        8.2825711244        1.2213093365
  H        12.6400042197       -2.0015799041       -2.5881016170
  C        13.2308759984       -0.5773452051       -3.9745142661
  H         5.5185067739        8.4120874024       21.4758406123
  H         5.8972418207        9.8587290542       20.7695117239
  C         7.6929054654        8.9624459816       21.5947579135
  H        18.9689850610        6.1137331538        8.1959643306
  H        18.1228497425        6.6401316014        6.7628426708
  C        19.5698805293        5.3915763418        6.1953898805
  H         3.4973428159        8.6497020960        0.3224254803
  H         3.1518094679        7.7753050651        1.8593092019
  C         4.4197859184        9.4061719637        2.0627763028
  S        13.8423182713        0.9444991684       -4.4280951229
  C        13.3932881698       -1.5809669624       -5.1090990601
  H         7.7393460286        9.4955392333       22.5696236932
  H         8.3941089965        9.5162353456       20.9313828796
  H         8.0992998648        8.0043043039       21.7531025428
  H        20.1421774962        4.5780633557        6.7192910135
  H        19.2426759103        5.0125003302        5.1948807309
  H        20.2411299917        6.1663259184        6.1102381027
  H         5.4104197500        9.8092788020        1.6170219672
  H         3.6358371178       10.0887951651        2.0134671508
  H         4.3886060226        9.2257164592        3.1246029204
  C        14.2782498629        0.2945663226       -5.9920477586
  N        14.0814707473       -1.0476910414       -6.1111210894
  O        13.1646275807       -2.7695348282       -4.8978477458
  S        14.8467745484        1.2478322179       -7.3988665680
  C        14.4061564144       -1.8800823748       -7.2970977567
  H        14.7634636181       -2.8467735498       -6.8706679191
  H        15.1103748607       -1.3680281492       -7.9622337938
  C        13.2179975767       -2.2118206554       -8.2144887104
  H        12.2235779306       -1.9982305424       -7.8788624478
  H        13.2530802866       -3.2892719068       -8.4069213054
  H        13.2540276980       -1.6560688011       -9.1363687068
  H        -3.2993400769       15.2459177031       15.9762606840
  C        -3.1054700538       14.2546700069       16.3803850084
  H        -3.9955026328       13.7336546773       16.7297933308
  C        -2.2525700110       14.5009142135       17.6380999587
  C        -2.4427492367       13.4319318190       15.2307771375
  C        -2.7357086982       13.6918053998       18.8446057052
  H        -1.2330777225       14.1294734815       17.4159703004
  H        -2.2254641244       15.5066104589       17.9313418898
  H        -1.6624881116       13.8773106858       14.6738022053
  H        -1.9183901280       12.6002182653       15.5792612808
  H        -3.0689689323       12.8666559036       14.5780401825
  C        -1.5097549446       13.4955880374       19.7979974732
  H        -3.0726782726       12.7204152247       18.5729450505
  H        -3.6391918860       14.2621521086       19.2674681464
  C        -1.9331513897       12.9848710065       21.1594318935
  H        -0.7403191039       12.8618572234       19.4221814039
  H        -0.9329263526       14.4748899759       19.9440177964
  C        -0.6635852414       12.4878513505       21.9598523654
  H        -2.6645439376       12.1235098006       21.1512233163
  H        -2.3659991809       13.7717505357       21.7201418961
  C         0.4278892006       13.4964537838       22.4060467846
  H        -1.0968421734       11.9773660626       22.8003217484
  H        -0.2643082847       11.7382498392       21.2723852566
  C         1.6665744017       12.7974617948       23.0276407421
  H         0.7743454772       13.9858410416       21.5187024812
  H        -0.0392409937       14.3265192924       22.9586261255
  C         2.0461960849       11.5252816577       22.3543687723
  C         1.2882859687       12.1210656741       24.3409919198
  C         2.9318475971       13.7448843313       23.0660560439
  C         1.6967563651       10.3944064791       23.0866636064
  C         2.5091572308       11.1065387277       21.1006801164
  C         1.1492944569       10.7608773149       24.3523028121
  C         0.8738468926       12.7714656271       25.4680942744
  H         3.1698939758       14.2380253127       22.1013085399
  H         2.5795065548       14.5786552738       23.6341547121
  C         4.1425030209       13.2401396626       23.7931629535
  S         2.0992685166        8.9032971402       22.3906779790
  C         2.5984936463        9.7632655755       20.9118522205
  H         2.7476698273       11.8862181485       20.3748914209
  C         0.6006052474       10.2058220367       25.4678965817
  H         1.0641807206       13.8263552677       25.5269127551
  C         0.3570188783       12.1418486789       26.5425845913
  H         4.5205221514       12.3163312780       23.4084436218
  H         3.8098094680       13.0285718868       24.7941212321
  C         5.3113545391       14.2594497491       23.6946310081
  C         2.9530444707        9.0059786733       19.7086295560
  C         0.2081178506       10.8193232081       26.6214979662
  H         0.5908858284        9.1537716352       25.5282628920
  C        -0.0786860238       12.6025701404       27.7586841596
  H         6.1578459819       13.8488030645       24.3561224810
  H         5.0410987889       15.2396742929       24.2287157055
  C         5.9797403045       14.3839894814       22.3378083175
  C         2.8755283996        7.6131990185       19.4951577134
  C         3.4164024950        9.9140539873       18.5892164922
  C        -0.1924658943       10.2132211966       27.9360564929
  C        -0.4191450487       11.5559679487       28.5510297137
  S        -0.3064005271       14.1403294973       28.4381885112
  H         6.8334715968       14.9641758138       22.5188899070
  H         5.2902808753       14.9502375431       21.7053427362
  C         6.5376959493       13.1297576493       21.7331934698
  N         2.5091963867        6.6483312301       20.4252182749
  C         3.0703852181        7.1575294567       18.2008486572
  C         3.6096860550        9.3636358685       17.3222442646
  H         3.6367410740       10.9646130401       18.7162471966
  C         0.9513906525        9.4604215344       28.6354784219
  C        -1.5216116347        9.4701385826       27.8177114833
  C        -0.8175503877       12.0221790711       29.8762208834
  C        -0.8068691818       13.3754252593       29.9002401982
  H         7.6174526982       13.2690616092       21.8317037046
  H         6.4029772484       12.1518580652       22.1289635122
  C         6.1562656634       12.9718266557       20.2599616037
  S         2.3782158815        5.2533110460       19.5800109901
  N         2.8914409766        5.7902195577       18.1843633279
  C         3.3516205940        7.8747579856       17.0266355785
  H         3.8462416441        9.9397107899       16.4704330931
  H         1.3186042515        8.6668197493       27.9589921195
  H         0.5192337566        8.8156374108       29.4430762722
  C         2.1395539197       10.2890899069       29.0981418156
  H        -1.4290333927        8.5301892057       27.2187696254
  H        -1.6467780668        9.0422440197       28.8082112529
  C        -2.7240873029       10.2582533565       27.3624312918
  H        -1.0853135244       11.3100764301       30.6187725461
  C        -1.1326106106       14.1498113022       31.1196187993
  H         5.4305893143       13.7948446497       19.9500829579
  H         5.5678484879       12.0367370826       20.0789840200
  C         7.4508002089       12.9636048063       19.4375002427
  C         3.5746316578        7.1512968224       15.8199758365
  H         2.5938717547       10.8652607610       28.3187922107
  H         1.7774719490       10.9616532738       29.9189187903
  C         3.1910805660        9.3355242917       29.8166407218
  H        -2.5146460422       10.6303373622       26.3353295051
  H        -2.9029589528       11.0380437992       28.0140034159
  C        -4.0073882792        9.4039397709       27.3116139435
  C        -1.1831978058       15.5688393703       31.3121375730
  C        -1.4108949770       13.3271887547       32.3114576940
  H         8.1069396673       13.7710941810       19.5390443760
  H         7.9492279489       12.0315857036       19.4877126807
  C         7.1652817014       13.1058929886       17.9947945859
  H         3.2477337962        6.1561517505       15.8136181169
  C         3.8062235981        7.5498332939       14.5603554512
  H         3.5580761624        8.7349297389       28.9794554714
  H         2.7873149410        8.7149521854       30.5635201226
  C         4.3114725641       10.3018389804       30.2481414106
  H        -3.8479161071        8.6530337136       26.6266818061
  H        -4.2618832866        9.0256293695       28.2632599934
  C        -5.1588729153       10.3338208489       26.7845049956
  N        -0.9126047302       16.5436860569       30.2846255684
  C        -1.4491702947       16.1317874109       32.5746883153
  C        -1.7851554289       13.9067515888       33.5468676330
  H        -1.5792694740       12.2620772297       32.2670065047
  H         7.9790452340       12.8835837175       17.2512792852
  H         6.2765815625       12.5673738899       17.6660561030
  H         6.8983342039       14.1344218894       17.8994615271
  S         4.2238811936        9.1588065658       14.0462769131
  C         3.7664353270        6.5041481465       13.4881641407
  H         4.4643151534       11.2083602401       29.7064776123
  H         4.1469180947       10.6021142627       31.2919143402
  C         5.6419841418        9.6066577839       30.1494016192
  H        -4.9439478337       11.2652724191       27.3085182535
  H        -6.1125802713       10.0918749013       27.2268618247
  C        -5.2657984155       10.5102089698       25.2426023679
  S        -0.9110156705       17.9691097582       31.0605887299
  N        -1.3559739461       17.4854705981       32.5308979038
  C        -1.8026351592       15.3885252574       33.7135400049
  H        -2.0492596974       13.2212476657       34.2880885804
  C         4.4977672907        8.3551323991       12.4741868622
  N         4.2647065831        7.0396346853       12.3594161333
  O         3.4327643674        5.2677706905       13.7114524545
  H         6.3226947629       10.1037856349       30.9082506144
  H         6.1651218587        9.7385658673       29.1728775116
  C         5.6834271646        8.1663414484       30.5582484994
  H        -4.5178399266       11.2108535715       24.8031577106
  H        -5.1607725946        9.5484320002       24.7936604767
  C        -6.6845759656       10.9920146336       24.8850504295
  C        -2.1166590863       16.0114785085       34.9453393656
  S         4.6694527110        9.2534359614       11.0278438254
  C         4.2227540413        6.1529717523       11.1427987830
  H         5.0519235653        7.9608776416       31.3794535423
  H         5.4090188880        7.5524022915       29.6970724716
  C         7.0872847187        7.6929752695       30.9782892220
  H        -6.7095794665       11.3824348896       23.8645886472
  H        -6.8415322293       11.7104844182       25.7403230377
  C        -7.7695978137        9.8502984755       25.0409306687
  H        -1.5699251387       17.0017951133       35.0167027265
  C        -2.7542398282       15.6937550688       36.0988934586
  H         4.9788400678        6.5903869020       10.4283151676
  H         4.6315830983        5.1781844447       11.3764338888
  C         2.7566720274        5.9428645863       10.6136513308
  H         7.4198084087        8.2486902523       31.8516577764
  H         7.8820621218        7.8315226774       30.2285172180
  C         7.1224818026        6.2151914575       31.4886080170
  H        -7.6815918367        9.2048104969       24.1435842263
  H        -7.7013852204        9.2565381162       25.9061284975
  C        -9.1993060352       10.4082195446       25.1997164491
  S        -3.2553009525       14.1283275610       36.5495748980
  C        -2.9068952308       16.7382159060       37.1332060587
  H         2.7000884264        4.8522174415       10.3116999005
  H         2.1100920280        6.0474923095       11.4431553534
  H         2.5279207064        6.6316348572        9.7616711643
  H         8.1729207174        5.8628992854       31.5145846140
  H         6.6327728332        5.4883763424       30.8199628168
  H         6.6108027219        6.0707114107       32.4468214859
  H        -9.1558521079       11.2250245355       25.9138852683
  H        -9.6503311308        9.5686968115       25.7590282971
  H        -9.7606537367       10.5260259316       24.2626369042
  C        -3.7196824145       14.8523409770       38.0820880067
  N        -3.4636513687       16.2058015044       38.2191803612
  O        -2.6686773742       17.9327455336       36.9528044447
  S        -4.4219131127       13.9688792160       39.4246128705
  C        -3.7021066063       16.9902070517       39.4215402608
  H        -4.0782063594       17.9829303917       39.1986153857
  H        -4.5949056888       16.5648358656       39.9642497215
  C        -2.5387221700       17.0320446958       40.3673853529
  H        -1.8109513053       16.2994493197       40.0169207657
  H        -1.8896955595       17.9413477595       40.3438369502
  H        -2.7735904834       16.8454606813       41.3951567249
