352
i=
  H         2.6210298138        1.3381523303       13.3523683962
  C         3.2984856628        1.3356526535       12.4851009781
  H         3.6216879971        0.3457217549       12.1063932091
  C         2.6075741576        2.1634917393       11.3285977026
  C         4.3237889059        2.2312527906       13.1025890594
  C         3.4921831744        2.4205171392       10.0366245031
  H         2.3540332394        3.0936291118       11.8045356763
  H         1.6768324613        1.6494481329       11.0363384193
  H         4.1027023623        2.2972156004       14.2008288086
  H         4.3308522475        3.2745678317       12.8356215225
  H         5.2850047785        1.7470828572       13.1274519967
  C         4.4724533008        1.3551874799        9.5785816644
  H         2.9043614803        2.8913123214        9.2594220477
  H         4.0933993219        3.3312509042       10.3137305851
  C         5.1013946604        1.6539761114        8.2465195652
  H         4.0203127267        0.3760035498        9.4228765695
  H         5.2452593221        1.2231612465       10.3685030140
  C         6.3575701117        2.4489027159        8.3969572816
  H         4.3832755814        2.2297617763        7.6244260684
  H         5.3714162902        0.7107010554        7.7352741288
  C         7.5285292132        1.7111248082        9.0009200640
  H         6.6160470307        2.9404649164        7.4464009311
  H         6.0019082802        3.1772885764        9.1398141869
  C         8.7155299106        2.4826322476        9.5080535304
  H         7.8405654607        0.8727848779        8.3732286110
  H         7.2472919838        1.0959361142        9.8737333352
  C         8.2485426407        3.8161802003       10.2036092558
  C         9.2430088908        3.2000482245        8.3652830527
  C         9.8102273268        1.7417180172       10.2458636019
  C         8.4948179158        4.8979485476        9.3860074989
  C         7.7148838284        4.2216043710       11.4845893557
  C         9.1165610953        4.5503546118        8.2360834371
  C         9.6837167607        2.6010922214        7.1842180011
  H         9.3190710812        1.2413649892       11.0173688803
  H        10.2313159648        0.9868527065        9.5070738982
  C        10.9559117169        2.5214490436       10.8710691615
  S         8.0731988940        6.4298802005       10.0508189275
  C         7.5658031726        5.5991615602       11.5045841130
  H         7.5683885625        3.4682755304       12.2855481731
  C         9.5970495660        5.1819137585        7.1455488101
  H         9.7706833426        1.4992927996        7.2074616753
  C        10.0725959315        3.3071451120        6.0563947641
  H        10.6684948636        3.3861906833       11.3876350600
  H        11.5541156930        2.7740198543        9.9677503605
  C        11.7915052128        1.6640596826       11.7192922607
  C         7.2602201802        6.4116576284       12.6925756201
  C        10.0560866794        4.6229845867        5.9834925748
  H         9.6908975891        6.3014070282        7.1390899276
  C        10.4961557101        2.9101815300        4.8403402582
  H        12.4903196826        1.0242365956       11.1197936620
  H        11.1208109440        1.0861013403       12.3748593037
  C        12.6154155433        2.5231357195       12.6384130004
  C         7.3567600939        7.8365924892       12.8992291992
  C         6.7936741741        5.6917359888       13.8930297485
  C        10.4400603260        5.3035603908        4.7134644815
  C        10.7828075670        4.0193820606        4.0468798069
  S        10.9159687972        1.4008355887        4.1918887042
  H        13.1891996598        3.1553071278       12.0062676939
  H        12.0957827820        3.3141042413       13.1255920320
  C        13.4817237691        1.5998807868       13.5571818735
  N         7.7638350946        8.7117650993       11.9014094580
  C         7.1014893638        8.4942026378       14.1008189290
  C         6.6669119607        6.3156973305       15.1264987718
  H         6.4776961575        4.6752251759       13.8173578321
  C        11.7331474646        6.1644361321        4.6662864703
  C         9.2450356965        6.0552680085        4.0623614168
  C        11.2671884555        3.5695625099        2.7909237234
  C        11.3948772917        2.2369517858        2.7401248978
  H        14.3579793974        2.1666215996       13.7776614452
  H        13.7047026248        0.7950208540       12.8474543192
  C        12.8281713303        1.0723299091       14.8365465030
  S         7.8088042388       10.2106939816       12.5482327560
  N         7.1877833951        9.8839178224       13.9896335761
  C         6.7579150255        7.7781013574       15.3012538094
  H         6.3085849803        5.7386459484       15.9865637540
  H        11.6660313151        6.7766765429        5.5106209953
  H        11.8385129594        6.8810892877        3.9040929233
  C        13.0135130162        5.4052870712        4.9466393344
  H         8.8841933886        6.8575714910        4.6613382624
  H         9.6679321855        6.4924232677        3.1102640677
  C         8.0617030492        5.2215456919        3.5837099179
  H        11.5895341357        4.3673637385        2.0587169087
  C        11.7715992997        1.4950257067        1.4925485468
  H        11.7899840149        0.7640444869       14.6065106794
  H        13.4350163359        0.2702117736       15.2989463247
  C        12.8251334752        2.1729770018       15.9164334822
  C         6.6216221434        8.5092897914       16.5053008381
  H        12.7586066615        4.7424571608        5.7785797614
  H        13.4369442739        4.8884109038        4.0147101296
  C        14.1048374915        6.2672849002        5.5939321686
  H         7.4168196992        4.9215752208        4.4182880123
  H         8.3560052028        4.2715629799        3.2072069151
  C         7.1683368423        5.9168272312        2.6041835556
  C        11.8238404905        0.0942852760        1.1975338303
  C        12.1965296711        2.3335036259        0.2923173260
  H        12.0164636022        2.8893192425       15.6595640864
  H        13.7228432069        2.7638773556       15.8376157464
  C        12.7236754564        1.5970608067       17.3488848211
  H         6.5829427023        9.5748117251       16.4043592530
  C         6.4148373257        8.1089556283       17.8257702269
  H        13.5659074315        6.8241634080        6.3091749245
  H        14.5718345706        6.9650238104        4.9454983294
  C        15.1760962949        5.4241561873        6.3221220980
  H         7.8463483598        6.2886859770        1.7659103771
  H         6.5478035791        5.1459133601        2.1233005203
  C         6.2390723273        6.9734435483        3.2249511947
  N        11.6003584303       -0.8845234966        2.2253854358
  C        12.0930695797       -0.4712510056       -0.0218062053
  C        12.3378691219        1.7520704509       -0.9481644757
  H        12.1996368488        3.4399348719        0.3529791115
  H        12.5035818101        2.5715498582       18.0195432958
  H        13.5872464639        1.0810812145       17.6393120808
  H        11.9268269468        0.9772818595       17.5623848597
  S         6.1597645463        6.5488406269       18.3715946757
  C         6.3909713011        9.1548356026       18.8721126595
  H        14.6442095194        4.8928995886        7.1707977042
  H        15.5729791004        4.7670660673        5.5696028567
  C        16.3264533805        6.2381433118        6.8622182837
  H         6.9368207710        7.5673713899        3.8370559117
  H         5.6017833138        6.4956261964        3.8727103622
  C         5.6674669279        7.8747940095        2.1946309375
  S        11.7295662114       -2.3169950584        1.6031784199
  N        12.1282237691       -1.8591817287        0.1169753604
  C        12.3332136766        0.2923047357       -1.1477409225
  H        12.4535134953        2.5063424017       -1.7734249860
  C         6.0891206215        7.2076834862       20.0272800892
  N         6.1087152933        8.5614899579       20.0721149680
  O         6.7132740799       10.3157874576       18.6454715503
  H        16.9085207019        6.7512716521        6.0941909869
  H        15.9555456941        7.0503835241        7.5019830320
  C        17.2406239008        5.2415718308        7.6761666197
  H         6.5094854095        8.4351667304        1.7620322889
  H         5.3322151152        7.3357600051        1.2994233913
  C         4.4736451515        8.6666530185        2.6763280309
  C        12.6344709821       -0.4666275992       -2.3412086000
  S         5.8223466875        6.3375104437       21.4400002625
  C         6.0780350403        9.3063034185       21.3634515705
  H        16.7602733669        5.0288516387        8.6933072291
  H        17.2080298847        4.2911765035        7.1377378773
  C        18.6948630328        5.6911655513        7.7807875906
  H         4.5100406878        8.9159970482        3.7725598789
  H         3.6209218149        7.9861539084        2.5512043636
  C         4.2015614410        9.9213632735        1.8708883207
  H        12.5951821498       -1.5744719055       -2.2776623927
  C        13.1054123732       -0.0812475888       -3.5797998306
  H         5.4442833829        8.8444615686       22.1721821525
  H         5.5955663623       10.2292796256       21.0944620487
  C         7.4868686916        9.4547232198       21.7699498735
  H        19.3060022831        5.0227451784        8.4254418982
  H        18.7136291056        6.7143616344        8.3082332968
  C        19.4282647616        5.7640543782        6.4046094671
  H         3.5497222467       10.6572646165        2.4765395861
  H         5.0665122768       10.4837944660        1.5981103159
  C         3.5119465519        9.6514271026        0.4843860009
  S        13.5921377155        1.5224823697       -4.0921590877
  C        13.2866522201       -1.1390479267       -4.6682971519
  H         7.6372275672        9.6441802636       22.8449969240
  H         7.8709641241       10.3166036429       21.1879556829
  H         8.1116148018        8.6575049389       21.4241715263
  H        19.3599200147        4.8601776941        5.6787606965
  H        18.9670862752        6.5843181812        5.8183487205
  H        20.4121620876        6.0583036285        6.5586706861
  H         3.3978630123       10.5141328468       -0.2697191878
  H         3.9165317790        8.8224671540       -0.0756828782
  H         2.4935874709        9.3131229751        0.6827044363
  C        13.9834139080        0.7989873332       -5.6635711823
  N        13.9514326682       -0.5787279265       -5.6683739825
  O        12.8935307649       -2.3259576279       -4.5309286142
  S        14.7008768327        1.5679061392       -7.0876937736
  C        14.4457412736       -1.3396633410       -6.8141314260
  H        14.8784268857       -2.3322979060       -6.4355838380
  H        15.2867183855       -0.9711470827       -7.3421290770
  C        13.2510834138       -1.7039976497       -7.6614158691
  H        12.8819237398       -2.6962733926       -7.5120000671
  H        13.3022206317       -1.6636810450       -8.7600815312
  H        12.4438051275       -1.0190292832       -7.4033311938
  H        -3.8425094491       14.8322493883       16.5538081996
  C        -3.5492398068       13.7739462813       16.6742617951
  H        -4.4887767696       13.3233106432       17.1066516607
  C        -2.4114127752       13.6880130770       17.7245490060
  C        -3.3542477737       13.0970723793       15.3132258446
  C        -3.0224523914       13.4627420763       19.0883083576
  H        -1.7931904762       12.8301579740       17.5413023148
  H        -1.7415714801       14.5460148177       17.7647375047
  H        -3.2215094535       13.9056417389       14.6128181349
  H        -2.5559499356       12.4404515209       15.3536501159
  H        -4.2979605267       12.5228935912       15.1169087922
  C        -2.0095848611       13.1409603136       20.1629423038
  H        -3.8440194444       12.6780806191       19.1287441895
  H        -3.6284756456       14.3475770137       19.4278496626
  C        -2.5400883522       13.0839176186       21.5970029352
  H        -1.6174280320       12.1462951448       19.8982634684
  H        -1.1570617504       13.7741746893       20.1213908800
  C        -1.4675219870       12.6381094738       22.5353854821
  H        -3.2561997464       12.2891019691       21.6082074552
  H        -3.0236799882       14.0529616754       21.9143116554
  C        -0.3447414760       13.6145911424       22.8632288650
  H        -1.8892260620       12.3846470445       23.5408403227
  H        -0.9544243932       11.8030776991       22.1086499184
  C         0.8518899902       12.9461065898       23.5137406163
  H         0.0689223213       14.1252355397       21.9885393824
  H        -0.8526143052       14.3167448461       23.4933982046
  C         1.2887010118       11.6483940034       22.9254588167
  C         0.4939099866       12.2182973104       24.8531844584
  C         2.0405207036       13.9361595054       23.7153657047
  C         1.2037529582       10.5427054052       23.7422257175
  C         1.6921334844       11.2520328399       21.6532012899
  C         0.6708837633       10.8958226587       24.9553303567
  C        -0.0362157874       12.7960762858       25.9957287526
  H         2.0431192657       14.6300249168       22.9010744115
  H         1.7612919423       14.5928461957       24.5720595829
  C         3.4098297043       13.3999057211       24.1943379195
  S         1.5443617936        9.0008998192       22.9767559144
  C         1.8387706434        9.8751107248       21.5301448865
  H         1.9240649527       11.9981735827       20.8813093499
  C         0.2707312159       10.2355868100       26.1102176944
  H        -0.0409946140       13.8703752762       26.0450280698
  C        -0.2811042282       12.1399306697       27.1578016172
  H         3.9521799451       12.7266962496       23.4762925555
  H         3.1295707775       12.9952269625       25.1093071135
  C         4.4012687956       14.4666034841       24.5530424949
  C         2.3426928990        9.2676672487       20.2938466778
  C        -0.1908999561       10.7956811525       27.2618308641
  H         0.3597801421        9.1249774682       25.9323451089
  C        -0.6200857606       12.4795931174       28.3951432086
  H         5.1125639972       14.1019085478       25.2606897835
  H         3.8725614790       15.2895454741       24.9439539129
  C         5.0516516099       15.1437219175       23.3500614065
  C         2.5821120145        7.9069503203       20.1076666031
  C         2.6377558357       10.0850171252       19.0678424194
  C        -0.4090352667       10.0716441681       28.5584063287
  C        -0.7202750153       11.4241918165       29.1903368707
  S        -0.8644369550       13.9850912431       29.2126860914
  H         5.5649155481       16.0083725927       23.8238861776
  H         4.3789364492       15.4003336242       22.5365645281
  C         6.2577421031       14.3703750008       22.7521913822
  N         2.4944260439        6.8956109678       21.0588118067
  C         2.7587008933        7.3495357230       18.8520181907
  C         2.9775220030        9.5066312229       17.7845919072
  H         2.6579148505       11.1634467843       19.2380319834
  C         0.7836981622        9.4082941503       29.1985569167
  C        -1.7249040351        9.2006506546       28.3150942302
  C        -1.0680632721       11.8203295979       30.4794508369
  C        -1.1826588721       13.1318040691       30.6879311938
  H         7.0186024657       15.1495269707       22.6759015807
  H         6.7477316488       13.6264189316       23.3458854285
  C         5.9682098915       13.9110838987       21.3202870016
  S         2.6457491054        5.4436765044       20.3460601862
  N         2.7814941936        5.9539019696       18.8469504671
  C         2.9419340428        8.0057536296       17.6399435641
  H         2.9074480832       10.0381223873       16.8763749548
  H         1.2819672972        8.8007679317       28.3630332728
  H         0.3929114965        8.6438923742       29.8998219058
  C         1.7934877576       10.2594253937       29.9324158290
  H        -1.7182932737        8.5764682559       27.4012266552
  H        -1.8352781136        8.5565152284       29.2108492985
  C        -3.0185924752       10.0244088228       28.2092047102
  H        -1.1929882107       11.0332963629       31.2113171304
  C        -1.5312881299       13.8056487210       31.9703086046
  H         5.3375858724       14.6193579262       20.8281621719
  H         5.3818772456       13.0218663604       21.3718863026
  C         7.2480049685       13.5177829194       20.5981419121
  C         3.0936433836        7.3367479305       16.4059077432
  H         2.1891733561       11.0841451239       29.2613964567
  H         1.4561110069       10.7494394668       30.7943859740
  C         3.0608380732        9.5037144616       30.4336474138
  H        -2.7600620893       10.8173471467       27.4922460820
  H        -3.1341719025       10.5839431193       29.0882893399
  C        -4.3547756518        9.1937414679       27.9385053951
  C        -1.5377796060       15.2089794488       32.1147531458
  C        -1.8802920236       13.0310327205       33.2232769735
  H         8.1356898242       14.1064975016       20.6829059722
  H         7.7052035089       12.5810117730       21.0662638749
  C         6.8754619973       13.3070085154       19.1479476224
  H         3.0208456591        6.2666008881       16.5741849760
  C         3.4556984798        7.6170751129       15.1054057783
  H         3.4368061208        8.8127434958       29.6527324369
  H         2.6495874797        8.9306856304       31.2530888262
  C         4.1100002392       10.3707058398       31.0455426282
  H        -4.1390779483        8.5080136151       27.1055221107
  H        -4.6284026151        8.5364465116       28.7065099156
  C        -5.5653814402       10.0751272523       27.5719468401
  N        -1.2364621544       16.2140962885       31.1530876161
  C        -1.9233382784       15.8671181596       33.2741458759
  C        -2.2269866132       13.6766969097       34.4101544832
  H        -1.8407464521       11.9658309151       33.2448994501
  H         6.7940951201       14.2334083470       18.6356601221
  H         7.6412959702       12.7563155273       18.6608051674
  H         5.8553221685       12.7895022970       19.1044248567
  S         3.8009316847        9.1808323127       14.4219246653
  C         3.5626595692        6.5452816222       14.0817854684
  H         3.9604682046       11.4080994638       30.6535908754
  H         4.0436685797       10.2789607541       32.1510292033
  C         5.5342155630        9.8687595742       30.6496120678
  H        -5.1547056446       11.0863094021       27.2644276923
  H        -6.1598758925       10.3346174977       28.4571235931
  C        -6.3544548927        9.5610992905       26.3970154731
  S        -1.3905552696       17.6831284602       31.7857242387
  N        -2.0107380476       17.2261634104       33.2119121182
  C        -2.2636224401       15.1956474974       34.4536944877
  H        -2.5362328998       13.1146378429       35.2928269892
  C         3.9758704714        8.3988522648       12.8923662370
  N         3.8580375187        7.0962905338       12.8789304376
  O         3.4265001357        5.3330683998       14.3764210117
  H         6.3020841695       10.6375506929       30.8444265692
  H         5.4692952946        9.7559748997       29.5726709434
  C         6.0039342364        8.5704563674       31.3766254627
  H        -5.7109352712        9.0494318826       25.6562797706
  H        -7.0039844229        8.7357022371       26.7235214476
  C        -7.2504367297       10.6051200005       25.7308755006
  C        -2.5148464614       15.9926046401       35.6170377577
  S         4.4414903465        9.2006068548       11.3902280948
  C         3.9199637720        6.3428555042       11.5835990857
  H         6.9757144319        8.6170868594       31.8926463856
  H         5.2901188063        8.2259548130       32.1177375994
  C         6.0889887195        7.4444496298       30.3173365858
  H        -6.6208949568       10.9185886002       24.8927146799
  H        -7.4444681592       11.5081100895       26.2797130372
  C        -8.6051257511       10.0748040235       25.1808572945
  H        -2.2687273129       17.0384927654       35.4392577086
  C        -2.9682993021       15.6331366559       36.9064322064
  H         4.6874214089        6.5258061303       10.8474451013
  H         4.1766153847        5.3617561751       11.9672902911
  C         2.4838769774        6.2828736658       10.9364318523
  H         6.6104999461        7.7666318216       29.4672623977
  H         5.0843473748        7.1027068684       30.0482873502
  C         6.8309506388        6.3329539009       30.9939739462
  H        -9.0256616020       10.6923174258       24.4037145276
  H        -8.3783852604        9.1898945223       24.6657766488
  C        -9.7021457350        9.9879607423       26.2013513388
  S        -3.6851060451       14.1530291793       37.4190083272
  C        -3.0321211522       16.7480647492       37.8805774433
  H         1.6800576693        6.2663613936       11.6353638108
  H         2.3780775215        7.1974635317       10.3529735887
  H         2.4251346512        5.4784846641       10.2541641470
  H         6.4030531240        6.0021910930       31.9462388958
  H         7.8218813515        6.7562765526       31.1215358363
  H         6.8753155150        5.4494666903       30.3816681586
  H       -10.0803662073       10.9102781920       26.4742027812
  H        -9.3698690274        9.4874469065       27.0501697796
  H       -10.5351665730        9.5061714063       25.7162304849
  C        -4.0074449799       15.0157108209       38.9623184107
  N        -3.7445114689       16.3323525300       38.9390528879
  O        -2.5765495222       17.8566513362       37.6865104737
  S        -4.6481274695       14.2256208382       40.4468617833
  C        -3.7238472901       17.2331847495       40.0729201322
  H        -3.9988400892       18.2488894405       39.7475722240
  H        -4.5288646899       16.9851356107       40.7582605235
  C        -2.3882938143       17.2116435903       40.8061044871
  H        -1.5710281511       17.7139366399       40.2779842371
  H        -2.6385084014       17.8314385060       41.7543108232
  H        -2.1037633215       16.1875120791       41.0187065262
