352
i=
  H         2.4631516061        3.4034906733       12.3881356803
  C         2.8125968634        2.4279825646       12.2329793570
  H         2.0862406953        1.7856402963       12.8379695711
  C         2.4396380526        2.0059198748       10.8139669364
  C         4.2787100712        2.2564596355       12.6823520052
  C         3.4242221994        2.3937552531        9.7164977370
  H         1.5631100549        2.5303575699       10.6652426535
  H         2.0565699258        0.9987284207       10.7464723905
  H         4.4517791757        1.2626336770       12.9655932494
  H         4.4295596632        2.8630013774       13.5751242641
  H         5.0572075602        2.5569198384       11.9464143713
  C         4.3661597826        1.2915825212        9.3611205082
  H         2.7958576875        2.5717838809        8.8998700539
  H         3.9371133904        3.2920524016        9.9033338008
  C         5.1055397419        1.6706049101        8.0730712107
  H         3.6911460933        0.3996855387        9.3053999554
  H         5.0596522169        1.0734914507       10.1288502719
  C         6.4601364074        2.4799313211        8.3174373992
  H         4.3724161491        2.2740461887        7.5481120386
  H         5.2709686032        0.8023997550        7.4945411769
  C         7.5148887572        1.6454252631        9.0610212818
  H         6.7687037304        3.0451973157        7.4337285906
  H         6.0784106462        3.2478337394        8.9642505719
  C         8.6917656866        2.5866432623        9.4705133445
  H         7.9157597911        0.9189900355        8.3648229571
  H         7.0038447013        1.1240211294        9.8239581076
  C         8.3011388360        3.9065001538       10.1425350694
  C         9.2861917275        3.3247124765        8.3007304486
  C         9.7763420650        1.8450745124       10.3280177084
  C         8.5888678400        5.0350871699        9.3637613739
  C         7.7378202123        4.1919910751       11.4414554739
  C         9.2629161119        4.6935733573        8.2446721090
  C         9.8641804206        2.6789103147        7.2190016644
  H         9.1874834156        1.3530153230       11.0913055295
  H        10.1966169935        1.0560240552        9.7173650210
  C        10.9592505092        2.7879562052       10.6499298248
  S         8.1516202925        6.4385266632       10.1600306051
  C         7.5945687398        5.5526417748       11.5391499772
  H         7.5992934887        3.4043603716       12.1131420083
  C         9.6715687237        5.2680053000        7.0997954222
  H         9.8983696386        1.6216267823        7.1903902171
  C        10.3503994750        3.3025496967        6.0862087882
  H        10.7971957303        3.8120937113       11.0070807972
  H        11.4264052187        3.0135543058        9.7339834054
  C        11.8410771669        2.1415555220       11.7037927332
  C         7.2028085369        6.2833835317       12.8031465592
  C        10.2799854702        4.6387341084        6.0077229284
  H         9.5743010566        6.3311489377        7.0341023384
  C        10.7952408361        2.9303229754        4.8326142057
  H        12.8413551677        2.7093936327       11.6549582387
  H        12.2133294603        1.2310557364       11.3103151038
  C        11.1734338046        2.1090623027       13.1681247559
  C         7.2548764519        7.7139786051       13.0216002342
  C         6.8155015199        5.4961869023       13.9907507846
  C        10.6620365833        5.3556880163        4.7500999775
  C        11.0385281325        4.0197592438        4.0352720996
  S        11.0970022437        1.4342049310        4.0122409701
  H        10.8887640483        3.1259382340       13.2628935793
  H        10.2335538505        1.5051420320       13.3947480690
  C        12.1568684658        1.6774002942       14.2648522649
  N         7.6771322783        8.6566469081       12.0713931526
  C         6.9766198482        8.3108499905       14.1983390793
  C         6.5080659822        6.0945055311       15.2662256153
  H         6.5087790767        4.4242776189       13.8755711165
  C        11.8716131530        6.2764628815        5.0221451171
  C         9.4658551045        6.0478241640        4.0185850415
  C        11.4873848568        3.7126500625        2.7214634272
  C        11.5281457571        2.3416667684        2.5209929326
  H        12.9142646678        2.4275106647       14.1796674427
  H        12.6646704921        0.7297555829       14.2374603661
  C        11.7187966242        1.9187932458       15.6845949930
  S         7.6151198870       10.1202728604       12.6978508128
  N         7.1474527127        9.7036135097       14.1923784079
  C         6.6167996165        7.5804044345       15.3872007254
  H         6.1880063370        5.4445286187       16.0793390846
  H        11.6278690623        6.9661871391        5.7997826483
  H        11.9119914204        6.9468752053        4.1979297164
  C        13.1244501946        5.4370826741        5.3038590107
  H         9.0678685947        6.8257427774        4.6196882967
  H         9.7564369049        6.5284000120        3.1300687093
  C         8.3371281766        5.0087848192        3.7800716529
  H        11.7309542116        4.4731138206        2.0384470394
  C        11.5997147540        1.7137712610        1.1235590617
  H        11.0091158513        2.7748155253       15.7554948707
  H        11.2718227104        0.9526169023       16.0251934633
  C        12.8893758957        2.3660728235       16.6697546783
  C         6.3239558379        8.3159250703       16.5572265825
  H        13.0351846315        4.7362207250        6.0981290725
  H        13.4519974688        4.7725706199        4.5131100034
  C        14.3607083178        6.3645600698        5.5322738351
  H         8.1499278044        4.4455260088        4.6693156052
  H         8.6324800122        4.2085658976        3.0388795252
  C         6.9630964268        5.6411092778        3.3899841312
  C        11.7128131572        0.3178598643        0.9221169681
  C        11.8474256338        2.5896493374       -0.0777709216
  H        13.6855202791        2.9987316468       16.2064341720
  H        13.4104629913        1.3936476793       16.8143497015
  C        12.4029118232        2.8826865059       17.9753986946
  H         6.1783679513        9.4122603537       16.3642516595
  C         6.1969197258        7.9734593112       17.8927271367
  H        14.1105146062        7.2064334640        6.1612562683
  H        14.6792632985        6.8408464046        4.5918153348
  C        15.5619097657        5.5735746757        6.0101539487
  H         6.0970612561        5.2346869151        3.9703343479
  H         7.0241917159        6.6978856100        3.7062642776
  C         6.6851345742        5.6363768484        1.9410867662
  N        11.5978252911       -0.6293885717        1.9516624049
  C        12.0363053037       -0.2272341412       -0.3267541855
  C        12.0462197027        2.0185577183       -1.3642667036
  H        11.5430305877        3.6292563463       -0.0634057177
  H        13.1887609827        2.7002994931       18.8118255923
  H        11.4553987747        2.3853142178       18.1752672471
  H        12.2117165892        3.9649168388       18.0348569581
  S         5.9015633536        6.4268280567       18.6469977564
  C         6.2464561540        9.0990401151       18.8390744062
  H        15.2509301641        4.7092731584        6.5970764875
  H        15.8803213361        5.1166855244        5.0881332757
  C        16.7702531135        6.1868872080        6.7203739165
  H         6.9305545330        4.6651169721        1.5202168536
  H         7.2658865896        6.4557420805        1.4262604456
  C         5.1775865552        5.7766198678        1.7322968552
  S        11.7269181419       -2.0767587167        1.2323415892
  N        12.0536872986       -1.5934094210       -0.2845167232
  C        12.2423560160        0.5191721147       -1.5231912498
  H        12.1501528979        2.7544607218       -2.1873407281
  C         5.8053341636        7.4236662387       20.1623245036
  N         5.9687787271        8.7427907408       20.0900394263
  O         6.4248256261       10.2364591908       18.4745913231
  H        17.2386510177        6.9824211193        6.1358264737
  H        16.5039622396        6.6716562806        7.7199888230
  C        17.6818098888        5.0148980786        7.0168221908
  H         4.8233287008        5.5368872810        0.7634959502
  H         4.6752812158        5.1255219300        2.3847251824
  C         4.6633012544        7.2583773425        1.8145114017
  C        12.5891740135       -0.1624007573       -2.7561898831
  S         5.3712820220        6.7382524121       21.7265821165
  C         6.1239181305        9.5588253227       21.2864303551
  H        17.1052235505        4.4022472335        7.6921275333
  H        17.9536979754        4.5695991392        6.0364963301
  C        19.0121799624        5.5974416573        7.5595738477
  H         5.0761630215        7.7889814985        2.6406951208
  H         3.6856437559        7.0583379603        2.1180493999
  C         4.6619147176        8.0858116050        0.5493619820
  H        12.6474837057       -1.1862013984       -2.6198401941
  C        13.0854623216        0.2989208175       -3.9278623404
  H         5.4310929622        9.2461035568       22.0811908940
  H         5.8599880593       10.5607452079       21.0047725175
  C         7.5139681646        9.4302551937       21.7935102496
  H        19.4253633442        4.9139181404        8.3412754048
  H        18.8120136027        6.5416626431        8.1230471437
  C        20.0838776179        5.8141201454        6.5890379596
  H         5.6359311838        8.6766646293        0.6103707282
  H         4.8445726651        7.5839443714       -0.3344250523
  C         3.5263854514        9.1411061620        0.4189605227
  S        13.7201507139        1.8852340160       -4.2424530725
  C        13.1390921600       -0.7009371318       -5.0308685392
  H         8.2273728889        9.2967670510       21.0627145182
  H         7.7096408567        8.6813661455       22.4880294461
  H         7.7675758447       10.4261306308       22.2639691815
  H        19.8249112581        6.4185314631        5.7974672082
  H        20.8637863924        6.2820389880        7.1930691682
  H        20.4676546295        4.8727148234        6.1416616293
  H         3.6785688336        9.9526178294        1.2076280030
  H         3.5631890728        9.6521107903       -0.5291565339
  H         2.6136240553        8.5945393650        0.5463387895
  C        14.1373818036        1.2037594450       -5.8449117885
  N        13.7745270606       -0.0950377277       -6.0268558552
  O        12.7817318349       -1.8883383879       -4.9273406060
  S        14.7937134060        2.1108975768       -7.2524050531
  C        14.0521460590       -0.8649079103       -7.2551328141
  H        14.1413888002       -1.9158454750       -6.9523066260
  H        15.0046827902       -0.5294502422       -7.6130896554
  C        12.9276582558       -0.7090847154       -8.2635975573
  H        12.8357175159       -1.6985639222       -8.7341576624
  H        13.1742313655        0.1237615230       -8.8585827617
  H        12.0674244437       -0.5415660129       -7.6250388790
  H        -2.2837174223       12.3265901732       16.9876489785
  C        -2.6753123046       13.1827016575       16.4801002142
  H        -1.7133060911       13.6273794362       16.0116869786
  C        -3.2196055837       14.1799415355       17.4071099369
  C        -3.5533524347       12.5558069045       15.3720233257
  C        -3.5449452956       13.7196016659       18.8376267781
  H        -2.6363444184       15.0907887714       17.4559870170
  H        -4.1877579898       14.4109296714       16.8875137288
  H        -4.4571267824       12.1700437439       15.9084722771
  H        -3.9619159410       13.1608321308       14.5662098096
  H        -3.0198254592       11.7287629035       14.9619654260
  C        -2.5285886347       13.0571587662       19.7308904450
  H        -4.3217529848       12.9373610288       18.6782383219
  H        -4.0958702129       14.5025982432       19.4023891217
  C        -2.9264347938       13.0413942518       21.2369864540
  H        -2.3388741631       12.0628402749       19.3208765655
  H        -1.6201672267       13.6519000147       19.5505033430
  C        -1.8018631919       12.4350113171       22.0842540701
  H        -3.8930146074       12.6387022297       21.3714191580
  H        -3.1486441284       14.0615118130       21.4996492301
  C        -0.6722495328       13.4010368166       22.4899489970
  H        -2.3032745632       12.1621493413       22.9850879007
  H        -1.4491922833       11.5021006875       21.5864943365
  C         0.6010580539       12.8098549241       23.1128038950
  H        -0.3670633794       13.9082491537       21.5783765103
  H        -1.0560886796       14.1825835790       23.0883181755
  C         1.0068442801       11.5466506139       22.3932235033
  C         0.1474311716       12.1058396329       24.3793909072
  C         1.6911512946       13.8571306119       23.2331915509
  C         0.8010603425       10.4257043696       23.1785585528
  C         1.5150373550       11.1714278782       21.1631840817
  C         0.2982978959       10.7608773477       24.4247108566
  C        -0.2342300364       12.7060584808       25.5452119220
  H         1.8606622921       14.3050966134       22.1998741824
  H         1.3372547330       14.5914507604       23.9780386234
  C         3.0316983587       13.2503082728       23.6751809216
  S         1.3109923625        8.9665028514       22.4978557600
  C         1.6869243827        9.8273766227       21.0985088400
  H         1.7700857760       11.8927502528       20.4174531654
  C         0.0018391387       10.0864508708       25.5869761055
  H        -0.2352178454       13.7619788810       25.4735180193
  C        -0.4649112982       12.0650251895       26.6942498691
  H         3.3626950300       12.6866435724       22.8405143550
  H         2.8708320028       12.5657872505       24.4692144733
  C         4.0963921335       14.2873017512       24.2686476313
  C         2.0882397477        9.0718099339       19.8744503950
  C        -0.4315253764       10.7061249917       26.7612003799
  H         0.0131475354        9.0703493972       25.5111168264
  C        -0.8002315553       12.3672781391       28.0024935304
  H         4.7307081346       13.7906232102       24.9892202613
  H         3.6135697351       15.0717117899       24.8644429789
  C         4.7255594955       15.0724475349       23.0902527639
  C         2.0400283987        7.7148911315       19.6173750625
  C         2.5373647054        9.9197736977       18.7473305710
  C        -0.6394290437        9.9771545688       27.9738018900
  C        -0.8422284508       11.2682275187       28.7756680139
  S        -1.0997134924       13.8077999964       28.7647962009
  H         5.2721703579       15.8606187831       23.5625756646
  H         3.8767504331       15.5003934436       22.5536879208
  C         5.4670963104       14.1971282353       22.1019900810
  N         1.5420718654        6.8096176256       20.5573488036
  C         2.4997471444        7.0896764150       18.4132203133
  C         2.9751610259        9.2750548215       17.5662082751
  H         2.5719581127       11.0225528174       18.7202292452
  C         0.6892829436        9.2344373485       28.3856339466
  C        -1.8856521052        9.0673799256       27.9502669626
  C        -1.2059326053       11.5881660483       30.1048316255
  C        -1.4557831797       12.9254825826       30.2590653824
  H         6.4258417122       14.6264576066       22.0211811022
  H         5.6524471002       13.1315434278       22.2905455210
  C         4.7620339357       14.1959350229       20.6516099702
  S         1.6753074019        5.3003804546       19.8864990243
  N         2.3717069606        5.6912957996       18.4562330517
  C         3.0415208596        7.7587409083       17.3459867628
  H         3.3859090403        9.8856373202       16.7890950121
  H         1.2066257031        8.7956034280       27.5659380309
  H         0.3351019703        8.4069431259       29.0011950367
  C         1.7722728849       10.1231366309       29.1447713982
  H        -1.6611455462        8.1674301698       27.3710673751
  H        -2.0246844616        8.7195657889       28.9343025033
  C        -3.2198943301        9.6825721683       27.5226162857
  H        -1.2597550500       10.8210810135       30.8360850250
  C        -1.7545549200       13.5201391125       31.6382332966
  H         4.5733950267       15.1234462695       20.1458027149
  H         3.7837125301       13.8597467834       20.9495324178
  C         5.3874832285       13.2358631835       19.6334741696
  C         3.2496796414        7.1017272067       16.0841243750
  H         2.0528651740       11.0347842227       28.5925381577
  H         1.4670536815       10.3734443053       30.1799996647
  C         3.0739305599        9.3525282966       29.2564573855
  H        -3.0625673336       10.3627840576       26.6751588263
  H        -3.4701248503       10.3982815094       28.2749133085
  C        -4.3931310937        8.6527895881       27.4557628657
  C        -1.7533800944       14.9409145802       31.7925689187
  C        -2.0804869084       12.6811542215       32.7600447131
  H         5.0593417629       12.2248487532       19.8491076553
  H         4.9560043777       13.4028772930       18.6956494970
  C         6.9132349913       13.1749890644       19.6050450875
  H         2.9810190530        6.0030671090       16.0622540618
  C         3.3968478441        7.5217190555       14.7878203061
  H         3.5028803389        9.1940194449       28.2580435237
  H         2.8351717783        8.4889365369       29.7305968518
  C         4.0759053272       10.0562301372       30.1333322357
  H        -4.1971816241        8.0150976545       26.6395898492
  H        -4.3547000574        7.9792989726       28.3001783445
  C        -5.7414424493        9.3865008064       27.2182173434
  N        -1.4486935462       15.8431350101       30.8137246093
  C        -1.9876888784       15.5025393196       33.0223436426
  C        -2.4560347934       13.2717277245       33.9352474248
  H        -2.0642968931       11.5712972646       32.7332393811
  H         7.3626785033       12.7894915247       18.7358400460
  H         7.3677159970       14.1511504400       19.9478239702
  H         7.2784936288       12.4510795148       20.4339898512
  S         3.6093083443        9.1219820769       14.3019176408
  C         3.6100907617        6.4398017812       13.7514634625
  H         4.1749835189       11.0928459851       29.7705233811
  H         3.7522607833       10.0976697278       31.1541844388
  C         5.4173424981        9.3273576800       30.0284232076
  H        -5.8964385902       10.1859922870       27.9972852891
  H        -6.5073605695        8.6442678484       27.1521554753
  C        -5.7583862662        9.9304438359       25.8200598680
  S        -1.4833215712       17.3543178985       31.5180924415
  N        -1.8975934259       16.8581353043       33.0047531017
  C        -2.3685927478       14.7892320359       34.1482912477
  H        -2.6042913851       12.6029033572       34.7533530866
  C         4.0301881357        8.4139374990       12.6883663769
  N         3.9608588996        7.0360497137       12.5611846810
  O         3.6681991240        5.2751505342       13.9908577092
  H         6.1731618917        9.9569294325       30.3038873606
  H         5.5499179761        9.1227240963       29.0042982665
  C         5.5348313820        7.9864643191       30.8279830327
  H        -4.8906056201       10.6244579055       25.5571639060
  H        -5.6556730115        9.0454432958       25.1704100260
  C        -6.9504207602       10.7938432471       25.4763198281
  C        -2.6597028388       15.5643576805       35.2891732648
  S         4.2415226773        9.4495111187       11.2279133572
  C         3.9543773445        6.2807360543       11.3477392144
  H         6.0480814011        8.1871709521       31.7823710074
  H         4.5555277923        7.5187836435       30.9490086074
  C         6.4493532808        6.8671089609       30.2488578321
  H        -6.6501435727       11.4953221489       24.7730830767
  H        -7.2620737068       11.4508705863       26.3108531913
  C        -8.1369168585       10.0426017593       24.9059738063
  H        -2.3791689645       16.5725499793       35.2316013883
  C        -3.2118238651       15.2865453232       36.4681198275
  H         4.6747973458        6.6950295270       10.7003101464
  H         4.3891604011        5.2815537229       11.5088241210
  C         2.6126905938        6.3389055369       10.6812125229
  H         7.3616706740        7.4264912447       29.8682884554
  H         5.8562048283        6.4985772269       29.4126722888
  C         6.8964576732        5.7452779815       31.1803256216
  H        -8.5279471915       10.5328298468       23.9861417833
  H        -7.8514529474        9.0149774055       24.5645882389
  C        -9.2672341654       10.0827266453       26.0250369223
  S        -3.8176835427       13.7230497943       36.9570194307
  C        -3.1707129412       16.2772006560       37.5594227614
  H         2.1528801083        5.3204441983       10.4524754044
  H         1.9346701722        6.8012834659       11.4089407510
  H         2.6326135784        7.0057917376        9.8059157269
  H         6.0243822784        5.5298990434       31.7629526962
  H         7.6305964271        6.1192233154       31.8290519179
  H         7.1223041698        4.7759488372       30.7633227915
  H        -9.6053758858       11.1077090451       26.1877199450
  H        -9.0025429852        9.6107891941       26.9707933790
  H       -10.0949326496        9.6345093645       25.4683295507
  C        -4.1862095761       14.4540148693       38.5417255076
  N        -3.7579102490       15.7500564916       38.6260078364
  O        -2.9268578451       17.4556774360       37.3744884740
  S        -4.7188637181       13.5741214744       40.0082439478
  C        -3.9679874924       16.5295158015       39.8337787348
  H        -4.1894436907       17.5917032389       39.5797626028
  H        -4.7653323925       16.1571410585       40.5567207349
  C        -2.7434139860       16.5199914603       40.6119991463
  H        -2.4448131818       15.5097732956       40.9448423851
  H        -1.9494659507       17.0082585581       40.0269437186
  H        -2.7835390700       17.1639104276       41.4660111674
