352
i=
  H         4.5073077599        1.9069209629       12.6363208207
  C         3.8302391721        2.7433445293       12.7244893630
  H         4.4892910567        3.5959291494       12.5985974361
  C         2.9081519739        2.7937828440       11.5555297741
  C         3.1150305632        2.6670234040       14.0636201444
  C         3.6688810927        2.9290720820       10.2010884529
  H         2.2643110502        3.6793659694       11.7940967930
  H         2.2342019856        1.9337883029       11.6065607506
  H         2.1305196006        2.2206887114       13.8875348141
  H         3.0585913368        3.6259837436       14.4160390619
  H         3.6914913800        2.0987961364       14.7666005630
  C         4.4427398107        1.7179953646        9.7135499559
  H         2.9649578039        3.3850414202        9.4469885115
  H         4.3605414032        3.7831960806       10.2857833765
  C         5.1612698602        1.8172156068        8.2735362243
  H         3.7420168584        0.8687540697        9.5805812871
  H         5.2252017865        1.3659925756       10.3800673044
  C         6.4587482037        2.5951908430        8.3905617024
  H         4.5297413708        2.3102508810        7.5187079631
  H         5.2785413251        0.8763006364        7.7659232947
  C         7.7285814442        1.7393992096        8.5597062925
  H         6.5864112692        3.1300302532        7.4279041576
  H         6.4045045775        3.2933661405        9.1139751925
  C         8.9992017026        2.6240448280        8.8372241769
  H         7.8582303490        1.0562877843        7.8123248959
  H         7.5107898492        1.1634422318        9.3669948540
  C         8.6783133626        3.9108354476        9.5600105159
  C         9.5756354735        3.2493052172        7.6128773546
  C        10.1524634404        1.8574575802        9.4053296770
  C         8.9653666147        5.0255342256        8.7975256234
  C         8.2567029625        4.2989564990       10.8332145172
  C         9.5088043342        4.6127819649        7.5555440454
  C         9.9689746804        2.6301311801        6.3867883044
  H         9.7295445263        1.6083424593       10.3970536055
  H        10.4014578363        0.8946139384        9.0263065103
  C        11.4096964280        2.7630331432        9.7636204860
  S         8.6691928449        6.5516693491        9.5835097704
  C         8.1314125168        5.6339124628       10.9853359290
  H         8.1328506480        3.5786330552       11.5448206103
  C         9.8463867593        5.2826621587        6.4254435138
  H         9.9448100146        1.5229873949        6.3358793682
  C        10.4268624210        3.3466971452        5.3029408065
  H        11.1547887194        3.7414169126       10.2134872017
  H        11.9659076699        3.0006720815        8.8724951758
  C        12.3292136264        2.0835712465       10.8381787970
  C         7.6801198014        6.2959044210       12.3142513838
  C        10.3062102850        4.7070543288        5.2282935877
  H         9.7935520146        6.3220988041        6.4115888120
  C        10.7290429367        3.0495886207        4.0124375013
  H        13.2246846516        2.6898221537       10.8627837562
  H        12.7422465757        1.2108049627       10.4177233812
  C        11.8171090929        1.8932953400       12.2619522116
  C         7.6453568666        7.6631423020       12.5618517006
  C         7.2770993499        5.3951509484       13.4535149564
  C        10.7770934617        5.3944837668        3.9716593490
  C        11.0558817690        4.1197006196        3.2478935685
  S        10.8158308440        1.5382461150        3.2649800668
  H        11.2056341110        2.8103716811       12.5767965766
  H        11.2272898157        1.0236170131       12.2575386672
  C        12.9225725798        1.6462193433       13.3164950659
  N         7.9489398885        8.6530322908       11.6506111824
  C         7.4066666994        8.2156557868       13.8190211433
  C         7.0837008234        5.9481555084       14.7426367190
  H         7.1416774672        4.3436545664       13.2771901603
  C        12.0141451680        6.2630809434        4.2468818178
  C         9.6021797267        6.1785294080        3.2805182910
  C        11.5151631455        3.7118228229        1.9601214431
  C        11.3768570725        2.3841413951        1.7997769025
  H        13.7987112385        2.3459980958       13.1214860365
  H        13.4463569207        0.6881157653       13.1319052202
  C        12.3597221028        1.8099890616       14.7408795807
  S         7.9203692116       10.1236892839       12.3370348499
  N         7.4797647101        9.6400760222       13.8036425154
  C         7.1936795066        7.4066624700       14.9906037843
  H         6.7900636552        5.2874305755       15.5525260579
  H        11.7614258646        7.0861614893        4.9774190277
  H        12.4968176807        6.6160414368        3.3154230091
  C        13.0845948818        5.4610379068        5.0953414455
  H         9.3894406958        7.1158535033        3.7647687614
  H         9.9104815528        6.5379960828        2.3064746714
  C         8.3048470029        5.4351484578        3.1191053722
  H        11.8414797699        4.4804449925        1.2539436654
  C        11.6603024696        1.5912359806        0.5603722986
  H        11.9431933151        2.8118670091       14.7659580150
  H        11.5217069326        1.0575852398       14.7971235413
  C        13.2040327734        1.3724212886       15.9807363168
  C         6.9073318979        8.1431207898       16.1965383096
  H        12.6837259947        5.3761915655        6.0512482949
  H        13.2270731949        4.4728052930        4.5986935098
  C        14.4034018107        6.1513285271        5.0722614847
  H         7.9649118933        4.9872406350        4.0675940035
  H         8.3878442694        4.5988884647        2.4364239245
  C         7.2807075374        6.4762892832        2.7060847833
  C        11.8349949546        0.1798163322        0.4698448155
  C        11.8464789826        2.3658448356       -0.6790509367
  H        14.2089313345        1.6181684408       15.7755259344
  H        13.0639308123        0.2900226885       15.9441845273
  C        12.5679950786        1.7458023719       17.3641816537
  H         7.1851863718        9.2067246577       16.1091698005
  C         6.5942900209        7.7339222015       17.4708036280
  H        14.3867211669        7.1477954577        5.5606877133
  H        14.6714034698        6.3404279464        4.0212648923
  C        15.4326926775        5.2570363285        5.7328230671
  H         7.2036967236        7.2812900583        3.4586700926
  H         7.5129572962        6.9053361609        1.7098151720
  C         5.9051735446        5.7803180185        2.3593547641
  N        11.6194635964       -0.7627906141        1.5243741462
  C        12.1297790816       -0.4039970135       -0.7420936993
  C        12.2003838978        1.7180612105       -1.8824786185
  H        11.4799865333        3.3997643860       -0.7334172886
  H        12.1984670926        2.7899777106       17.4140630120
  H        13.2165361809        1.7253662058       18.2030629781
  H        11.7234192732        1.1028323374       17.4815062374
  S         6.2310052911        6.1484764850       17.9338586307
  C         6.3839797942        8.8001445479       18.4604213119
  H        15.0713161644        5.0722408160        6.7476457865
  H        15.3341354532        4.2278106881        5.3461170498
  C        16.8746516156        5.8043633568        5.6090611981
  H         5.3524498227        5.4396677802        3.2387916921
  H         6.1467931816        4.9139297319        1.7064699809
  C         4.9805858947        6.7367162365        1.6519163044
  S        11.6794606942       -2.2313566725        0.8419010855
  N        12.0893542880       -1.7805590289       -0.6615669236
  C        12.4544316929        0.2409296880       -1.9599246053
  H        12.1219018920        2.2920956888       -2.7560105394
  C         5.9266121433        6.8340825694       19.5189945947
  N         5.9478644511        8.2120841674       19.5714302312
  O         6.4417669664       10.0136369265       18.1797756268
  H        17.3653661357        5.1213821409        4.9682411381
  H        16.8365132062        6.8353379712        5.1847249769
  C        17.6172112603        5.7380482530        6.9948391322
  H         5.4222271113        7.0944348205        0.6996860349
  H         4.0314731294        6.1481752117        1.5259780839
  C         4.8313399527        8.0730161428        2.4014552930
  C        12.6131888482       -0.4888380857       -3.1715780268
  S         5.5702487723        6.0327414779       20.9765881829
  C         5.7512460287        9.0093100541       20.8328103471
  H        17.1154182174        6.1895799879        7.7807322045
  H        17.7170038848        4.6751878013        7.2560122587
  C        19.0833489233        6.2345669823        6.7682038516
  H         5.7166225900        8.6537252387        2.2880587928
  H         4.6766838419        7.7706851403        3.4227479480
  C         3.6226856648        8.9329979532        2.0701040266
  H        12.4344522666       -1.5943560225       -3.0630869227
  C        12.9505326690       -0.1648899893       -4.4555919424
  H         4.9876414214        8.5455655436       21.4927587506
  H         5.4946237621        9.9560356680       20.4829666904
  C         7.0861417802        9.0086425861       21.5209342366
  H        19.5826316959        6.2870670502        7.7999163316
  H        19.2979862528        7.1437584549        6.2661711676
  C        19.8605783370        5.2487692061        5.8698018740
  H         2.7166539032        8.3172296853        2.2096696169
  H         3.5872232630        9.7644200024        2.7577714189
  C         3.5291211385        9.4086667153        0.6132419107
  S        13.4245398246        1.4379902261       -5.0079873800
  C        13.1097165908       -1.2221331212       -5.4136375495
  H         7.7504883803        8.2307970920       21.3566275447
  H         6.8333287399        9.1052475876       22.6396360082
  H         7.6275601013        9.8562449111       21.1662190980
  H        20.5515690461        4.5916090220        6.3595821297
  H        19.3056813354        4.6753751111        5.2440849011
  H        20.5246625832        5.8501723340        5.2618671166
  H         2.8278121744       10.2267496299        0.3483674801
  H         4.5021238631        9.7295913234        0.3561543495
  H         3.3239748946        8.5788824558       -0.0457533815
  C        13.7885397735        0.5989563488       -6.5578398064
  N        13.6473706209       -0.7380375768       -6.5378680652
  O        12.9346281871       -2.4508424523       -5.1700843081
  S        14.6971266148        1.2621885264       -7.9343884087
  C        13.7182643649       -1.6231588401       -7.7314990055
  H        13.8838697027       -2.6809894678       -7.5580221454
  H        14.6421444176       -1.4048948691       -8.2257207903
  C        12.5116933643       -1.3796372868       -8.6414750858
  H        11.6488442855       -1.6435738063       -8.0407610549
  H        12.4287384916       -2.0117329905       -9.5185397664
  H        12.3832735580       -0.3561779884       -8.9441084272
  H        -3.8678407831       13.2461189038       16.3678617855
  C        -2.8346703445       13.6153355848       16.4907604060
  H        -2.1319649567       12.8524180215       16.8061687370
  C        -2.8605138490       14.5094757010       17.7387556128
  C        -2.3007939509       14.2811797833       15.1823961367
  C        -3.2767621931       13.8447681156       19.0401685680
  H        -1.8466921488       14.8390921050       17.9880384289
  H        -3.4363976854       15.4139128443       17.4634212366
  H        -1.4016412338       14.9718165060       15.2127595557
  H        -1.9822837317       13.5438811307       14.4494992699
  H        -3.0576965474       14.8860836201       14.6848960262
  C        -2.0724784195       13.4091638144       19.8994975206
  H        -3.8044538519       12.9080229574       18.9074200803
  H        -3.9780961449       14.4833025636       19.6655312848
  C        -2.5948525438       13.4507610626       21.3746614120
  H        -1.7573490919       12.4001724888       19.7603491321
  H        -1.2320783684       14.1435472676       19.7437536543
  C        -1.5979584416       12.7936002617       22.2327786690
  H        -3.5456924560       12.8965320227       21.4209000081
  H        -2.8521871426       14.4353182530       21.6092456997
  C        -0.4209291213       13.6465464517       22.5258475978
  H        -2.0493765334       12.6299906927       23.2265051629
  H        -1.3663425523       11.7233935455       21.9218279858
  C         0.7013154947       12.8981902002       23.3845778199
  H         0.0006756025       13.9898730694       21.6592618599
  H        -0.7740091179       14.4725495266       23.2089565668
  C         1.1580870298       11.5985343501       22.6325426962
  C         0.2575124022       12.0712613715       24.5024119856
  C         1.9380352501       13.7750793195       23.5325269969
  C         1.0203487895       10.4019191678       23.3776641241
  C         1.7084705030       11.2826061255       21.4138620306
  C         0.3830384842       10.6970573925       24.5646536136
  C        -0.2334482464       12.6623460408       25.5992719377
  H         2.3361464976       13.9800598462       22.5245618993
  H         1.7749504290       14.7668539742       24.1062309180
  C         3.1835424838       13.1576412700       24.1587621143
  S         1.3963303338        8.9598870845       22.5402908004
  C         1.9914697124        9.9262572854       21.2656447387
  H         1.7905423332       12.0973016406       20.6518982413
  C        -0.0592095579       10.0338733306       25.7612737261
  H        -0.1775786244       13.7842088627       25.4691925209
  C        -0.5264133944       12.0432847534       26.8047390530
  H         3.4579620265       12.3286760495       23.5254495712
  H         2.8858713790       12.8001782586       25.0788426472
  C         4.3593709559       14.1711056805       24.2030028049
  C         2.4418261191        9.2658443530       19.9912757167
  C        -0.4941165935       10.6841318024       26.9162816272
  H         0.0226505223        9.0201267380       25.8230125295
  C        -0.8885834698       12.4217713715       28.0245455649
  H         5.1818208343       13.7604686066       24.7879740255
  H         4.0081585050       15.0614678651       24.7949100021
  C         4.8638247223       14.6396083861       22.7820075546
  C         2.4719336849        7.8352036143       19.6885719670
  C         2.9525685030       10.1569478152       18.9567796742
  C        -0.8170270363        9.9921902337       28.2025632649
  C        -1.0351829845       11.3468374043       28.8584696229
  S        -1.1373010516       13.9464677285       28.8342310679
  H         5.3255456792       15.6656982087       22.8746869040
  H         4.0694468042       14.8802222219       22.1166210314
  C         5.7890017826       13.5558225449       22.2014759422
  N         2.2776886213        6.7827310005       20.5772875490
  C         2.8809440867        7.4031135175       18.4729442139
  C         3.3223465280        9.6967232226       17.7188453151
  H         3.3968047588       11.1266603123       19.1819832096
  C         0.3039419867        9.1858650823       28.7876260016
  C        -2.1349091788        9.2034325528       28.0365340372
  C        -1.3436189518       11.7239635141       30.1769273106
  C        -1.4010356507       13.0930333472       30.2921478506
  H         6.8560074100       13.8195331531       22.0799007134
  H         5.9190226747       12.6885148819       22.9255743665
  C         5.2145258679       12.9340325849       20.8562067724
  S         2.3708525515        5.3834950226       19.7383757146
  N         2.8652604618        6.0210369263       18.3378941369
  C         3.2139587590        8.2680408966       17.4110693493
  H         3.9536641043       10.2700786807       17.1201566605
  H         0.4261515737        8.2336558635       28.1964192885
  H        -0.0793183301        8.8374014282       29.7886370389
  C         1.6484881331        9.9134084724       28.9078549499
  H        -2.0109126740        8.4663502599       27.2893045748
  H        -2.4524648224        8.6516019655       28.9699513092
  C        -3.3881854351       10.0895300193       27.7021454793
  H        -1.4051179034       11.0116579290       30.9873502458
  C        -1.6409109636       13.9328659700       31.5810287027
  H         4.1190908628       12.9856552753       20.8215631536
  H         5.5266591246       11.8599062356       20.7228257710
  C         5.7843623813       13.6068650340       19.6327182656
  C         3.4965514071        7.6497427886       16.1577138803
  H         1.9488891950       10.2636977407       27.9019568532
  H         1.5816460439       10.8382881939       29.4722444433
  C         2.7273311701        9.0383191052       29.5169259760
  H        -3.0844754629       10.6440665997       26.8078930607
  H        -3.6297091416       10.8599542466       28.4666289396
  C        -4.6078590348        9.1645018322       27.4568550178
  C        -1.6634929738       15.3729054167       31.6399307115
  C        -1.9198632865       13.3041971666       32.9095858482
  H         5.2423559004       13.1301795068       18.7739785366
  H         5.4913701014       14.6806016951       19.6294218171
  C         7.2313760043       13.3447276641       19.3461019501
  H         3.4256486010        6.5684703008       16.1445051082
  C         3.7147446217        8.1558842691       14.8736763459
  H         2.7389685923        8.1484216518       28.9746335003
  H         2.2418775504        8.7155849294       30.4259536238
  C         4.1228023296        9.7021288573       29.7095091562
  H        -4.3503584541        8.6141634998       26.5724963580
  H        -4.6982554407        8.5231173067       28.3156585015
  C        -5.8540406213       10.0651307576       27.1128988824
  N        -1.5378760816       16.2619825558       30.5475878917
  C        -2.0165583824       16.0748677198       32.8077552189
  C        -2.2617919936       14.0073155514       33.9978397725
  H        -1.8956874312       12.2524931885       32.9737864372
  H         7.4485486107       13.6877409815       18.3224921423
  H         7.7359765336       14.0295748266       20.0386793649
  H         7.6156717868       12.3453325293       19.5229002955
  S         4.0839520906        9.7686812276       14.5599422739
  C         3.7667998307        7.2075610601       13.7302930230
  H         4.4020739331       10.2050596352       28.8236253973
  H         4.1006099536       10.5238287420       30.4467036543
  C         5.1965508259        8.6613321097       30.0316812436
  H        -5.7052303605       11.0567622314       27.4756498827
  H        -6.7460831425        9.7171816674       27.6700371608
  C        -6.1529739828       10.0584771282       25.5776476831
  S        -1.6055161188       17.7644348606       31.1806156699
  N        -2.0578103094       17.4474392148       32.6777329910
  C        -2.3568941903       15.4635162194       34.0222117449
  H        -2.4669665822       13.5217215470       34.9272731767
  C         4.1731409163        9.2476895224       12.8741611809
  N         4.1120619994        7.8886720082       12.6385710497
  O         3.5405092962        6.0048231031       13.8178237024
  H         6.1462630418        9.2001015443       30.1912825798
  H         5.4038146510        8.0920279413       29.1082637527
  C         4.9734656210        7.7272922531       31.3365482220
  H        -5.3214932867       10.4410967906       24.9845404023
  H        -6.3169337857        9.0275942861       25.2009712086
  C        -7.3865117208       10.8952145646       25.0350667142
  C        -2.7537963545       16.2732406415       35.1030040193
  S         4.5941861866       10.2098995497       11.4662058076
  C         4.0550380296        7.2195733466       11.3089018134
  H         5.6981301135        7.9161891988       32.0421574178
  H         4.0367395835        7.8280158865       31.8369941577
  C         5.2867919236        6.2745931267       30.9837711482
  H        -7.3039798403       11.1634549621       24.0111384436
  H        -7.5970025465       11.7365678502       25.6123916655
  C        -8.6865060115       10.0192216827       25.0062441782
  H        -2.4132641272       17.3633626679       34.9747432514
  C        -3.1825621981       15.9903760165       36.3929852543
  H         4.6619972784        7.8536692426       10.6087197473
  H         4.5089154141        6.2396066326       11.3602362554
  C         2.6312120815        7.1590380827       10.7884210464
  H         4.7511231079        5.9867144393       30.0472213410
  H         4.7246259660        5.5872731630       31.6942055551
  C         6.7578417158        5.8927996597       30.8844014816
  H        -9.4544741396       10.6357247415       24.4344345308
  H        -8.4281750526        9.1123083446       24.4931161479
  C        -9.3166062521        9.8782696865       26.3743621724
  S        -3.7594294645       14.5350523204       36.9841461519
  C        -3.1375531860       17.0878462275       37.3869516043
  H         1.8453319839        7.5488664077       11.3324181201
  H         2.6164591523        7.7463248719        9.8449692517
  H         2.4409679720        6.1801387658       10.4173415438
  H         7.1592114112        6.0189536411       31.8623192738
  H         7.2452189802        6.5115772477       30.1462827293
  H         6.9048951875        4.8480285242       30.5587833469
  H        -8.7307738402        9.1336397111       26.9464675657
  H       -10.3063887576        9.3999953845       26.1731772840
  H        -9.4811398443       10.7781554223       26.9868675321
  C        -4.0579957593       15.3947461628       38.5350779597
  N        -3.7549292185       16.6934409222       38.4971665901
  O        -2.7517385295       18.2060927770       37.1725420030
  S        -4.6612947877       14.7121839910       40.1021641368
  C        -3.8712537573       17.5937837152       39.6190282010
  H        -3.9181814390       18.6731659733       39.1944298842
  H        -4.7011642229       17.3736216199       40.3067234074
  C        -2.5294972666       17.5803758165       40.4468001218
  H        -2.5211271971       18.5101671283       40.9578953812
  H        -2.3135006754       16.6617525126       41.0637970786
  H        -1.7029077953       17.8068429751       39.7596174169
