352
i=
  H         2.8726192566        2.5251744083       13.9463061870
  C         3.5066087264        1.9718319186       13.3069097427
  H         3.4760988451        1.0006662568       13.7419349404
  C         2.8886701261        2.0545239812       11.9307079696
  C         4.8998890296        2.5497771939       13.5274431807
  C         3.8253127381        2.2825027143       10.7037013978
  H         2.2036975848        2.8642945965       11.9195407790
  H         2.3006997853        1.1901195614       11.6928765044
  H         5.6998969503        1.8097038170       13.1507545592
  H         5.0782810386        2.7983920638       14.5543087225
  H         5.0319949192        3.5231009225       13.0020896931
  C         4.6180466168        0.9846870911       10.3415264511
  H         3.2713097211        2.7891163818        9.8886733718
  H         4.4103846349        3.0595242918       11.0629581781
  C         5.2598903603        1.1208830883        8.8974428150
  H         3.9725888168        0.0719195065       10.3251843701
  H         5.3750343899        0.8539763785       11.1994041241
  C         6.5171515147        2.0557042345        8.7939406051
  H         4.5817747730        1.5350135528        8.1960805296
  H         5.5251001611        0.1839726461        8.5081621498
  C         7.7891772573        1.4418138823        9.3704760968
  H         6.5765387320        2.3142583353        7.7400616233
  H         6.2963236784        3.0419552583        9.2627066279
  C         9.0043701163        2.3510652120        9.5466698596
  H         8.0581948096        0.5400035514        8.7852440619
  H         7.6106805654        1.0888234980       10.4228324677
  C         8.6187397580        3.7019053349       10.1361687672
  C         9.3887295527        2.9324271734        8.2187140751
  C        10.0943839941        1.7169854347       10.3432573719
  C         8.9110958603        4.7496059722        9.2849214880
  C         8.0595261957        4.2291980707       11.3977313513
  C         9.4263692377        4.2760071126        8.0791574422
  C         9.8381319647        2.2663408143        7.0704709896
  H         9.6784305374        1.4274720350       11.2720896572
  H        10.6082280450        0.9489961068        9.8081945836
  C        11.2256973034        2.6713177127       10.7893004511
  S         8.5327197127        6.3191798200        9.9615683019
  C         8.0383018092        5.5582854272       11.4795546831
  H         7.8552242913        3.4651124946       12.2112560218
  C         9.9429840483        4.8305321155        6.9199609138
  H         9.6768269489        1.2229003187        7.0693902154
  C        10.3616050879        2.8362488150        5.9200389374
  H        10.8245012293        3.4543115064       11.4220881314
  H        11.5774966287        3.1413983286        9.9187323699
  C        12.3086065287        2.1280902523       11.7595941731
  C         7.6554110953        6.2925066616       12.7256731525
  C        10.4187501638        4.1757286160        5.7954067747
  H         9.8098155507        5.9251821933        6.8994212241
  C        10.7926034537        2.4035325686        4.6964746539
  H        13.2363722113        2.7464456883       11.7199527501
  H        12.5121580237        1.2122225725       11.3166782584
  C        11.7439165485        1.9702224358       13.2187639172
  C         7.7033188143        7.7174248041       12.8767681441
  C         7.2634238212        5.5108854050       13.9543466989
  C        10.9422478418        4.7865166084        4.5501780215
  C        11.2159690436        3.4677342943        3.8769394643
  S        10.9539751010        0.8538365333        3.9256367297
  H        11.4079870966        2.9162738181       13.5906253735
  H        10.8426347150        1.3345439864       13.1531224294
  C        12.7315844401        1.3559106577       14.2126226405
  N         8.1740205220        8.5457011709       11.8820334731
  C         7.4120433607        8.3307346371       14.0825065526
  C         6.9874869370        6.1251936715       15.1750865173
  H         7.0115359940        4.4305692865       13.8973760662
  C        12.2154919111        5.6571019262        4.8250926399
  C         9.8202438699        5.6366023036        3.8955791774
  C        11.5258125354        3.1020052996        2.6292057795
  C        11.4775530316        1.7373273747        2.4940037548
  H        13.7439121822        1.7396633044       14.1338090227
  H        12.8131345089        0.3191291116       14.1400421418
  C        12.2117169101        1.6573102427       15.6276214811
  S         8.1256077544       10.0918818390       12.5321806768
  N         7.5613832472        9.7398534703       13.9877451765
  C         7.0677499805        7.6455353839       15.2673312074
  H         6.7925499014        5.5623728330       16.0835716998
  H        11.9797060750        6.4860412763        5.4555234500
  H        12.5341626560        5.9634364107        3.8921175196
  C        13.3551052628        4.8617733299        5.3670052579
  H         9.5355090322        6.2899196572        4.6841923166
  H        10.3087740432        6.3561887835        3.2169225290
  C         8.7409022873        4.8445517661        3.2211887563
  H        11.7100308574        3.8117434709        1.8627363474
  C        11.7477871986        1.0418450959        1.1745682910
  H        11.8295362820        2.6422799123       15.6224541762
  H        11.4373322160        0.9451809296       15.8397935289
  C        13.3052453864        1.5382027159       16.7267751487
  C         6.8819380098        8.3294208334       16.5304709931
  H        13.0021095053        4.3197988281        6.1882179901
  H        13.7457773044        4.1514202817        4.6592828895
  C        14.5159341512        5.7631129496        5.8218464387
  H         8.3527045495        4.0918552645        3.9994665112
  H         9.2015156126        4.3547472569        2.3926656193
  C         7.5465790244        5.6645491740        2.7025004339
  C        11.7516251262       -0.3735095767        1.0400255832
  C        11.9221057506        1.8461951655       -0.0036686355
  H        14.2316915174        1.9857664913       16.4324803023
  H        13.7332492630        0.5013414280       16.8869712564
  C        12.8193430530        1.9479238170       18.1132111973
  H         6.9156473522        9.3530605133       16.4329350199
  C         6.6488956768        7.8884971572       17.8245609587
  H        14.1584545490        6.3646043200        6.6769287448
  H        15.0430448448        6.4738003509        5.0307431755
  C        15.6978829066        4.9155547435        6.2729296448
  H         7.2279457620        6.2393376013        3.5478563826
  H         7.8375778971        6.3668396894        1.9077742559
  C         6.3806376230        4.7601548359        2.1520911065
  N        11.3605271103       -1.3553175896        1.9535122743
  C        12.1242092572       -0.9336632270       -0.2063445772
  C        12.2391588762        1.2752477170       -1.2193222924
  H        12.0627218007        2.9221370658       -0.0098627806
  H        12.8300864969        3.0130962208       18.2351449713
  H        13.4074885732        1.6268382206       19.0551250489
  H        11.8005006709        1.6492339633       18.1928676414
  S         6.3721869444        6.3303246456       18.3769608057
  C         6.5084048957        9.0084546128       18.7975298222
  H        15.3888132907        4.1966396797        7.0545682995
  H        16.0819822578        4.3598433162        5.4585752423
  C        16.7572738731        5.8551579677        6.7952745603
  H         5.8115073003        4.2554282581        2.9401208291
  H         6.7259960356        3.9919208448        1.4628543625
  C         5.3922226461        5.6380026509        1.3697675778
  S        11.5548835283       -2.8002962221        1.2757319082
  N        12.1032979561       -2.3100540012       -0.2129702357
  C        12.3901288707       -0.1911052755       -1.3778461038
  H        12.4068220399        1.8854844459       -2.1209575204
  C         6.0403618541        7.0944187260       19.9522316811
  N         6.0734260727        8.4445784321       19.9450981319
  O         6.6778243288       10.1877160566       18.5472419893
  H        17.2185594827        6.4327839955        6.0136171571
  H        16.4446878660        6.6128761611        7.5176284351
  C        17.8564550725        5.0458007298        7.3817004065
  H         6.0237248996        6.2462707482        0.6394002224
  H         4.7992105039        4.9102470878        0.7662541970
  C         4.4972185200        6.5279688906        2.1375319396
  C        12.5061210951       -0.9167385699       -2.6067596159
  S         5.5708920399        6.3413214358       21.5031205043
  C         5.9103591271        9.3028873540       21.1524184697
  H        17.6805287962        4.8197788056        8.3979055427
  H        17.8387049026        4.0897663476        6.8348709301
  C        19.1834514919        5.7148910959        7.2597684755
  H         4.4753591049        6.1373121282        3.1505350383
  H         3.3940031319        6.3264852674        1.8017292516
  C         4.8106592734        7.9770144680        1.8995324638
  H        12.2718230796       -1.9349060524       -2.6191838376
  C        13.1048524960       -0.5860616742       -3.8448263447
  H         5.0705516954        9.0501294668       21.7255388535
  H         5.6508824041       10.2988141351       20.8154103298
  C         7.2564554412        9.2394978066       21.9536651999
  H        19.8621496716        5.2531646483        7.8943358710
  H        19.1069024830        6.7761411101        7.5425981475
  C        19.8413785295        5.7247472107        5.8889606130
  H         5.8360070242        8.2496203308        2.1464984267
  H         4.9290080185        8.2121970602        0.8135519078
  C         3.8596046216        8.9106269526        2.7029042928
  S        13.9469232834        0.9620867901       -4.1317822453
  C        13.2498330709       -1.6252295874       -4.8281517889
  H         7.2187758385        8.4171282998       22.7443792142
  H         7.5710415292       10.1297458420       22.4955006344
  H         8.1005826893        8.9340181567       21.2565935592
  H        19.5048425681        4.8497752815        5.3480155677
  H        19.6203379015        6.6531855306        5.3453476814
  H        20.9094662937        5.6901607684        5.8258693914
  H         4.3032742921        9.8878341541        2.4168509088
  H         2.8376734545        8.8824264803        2.3298120251
  H         3.8010610771        8.6996266563        3.7796364532
  C        14.2909236438        0.2004965318       -5.7044310267
  N        13.8867771561       -1.1007266685       -5.8761679134
  O        12.7666408665       -2.7917314359       -4.7545482556
  S        15.0270694444        1.0191505530       -7.0804854697
  C        14.0374970694       -1.8996637834       -7.1506885698
  H        14.0392976457       -2.9830300571       -6.9382389069
  H        15.0496271386       -1.6970309222       -7.5302497995
  C        12.8745537877       -1.6534463287       -8.1214629814
  H        12.0983858726       -1.2285894667       -7.5204662613
  H        12.6359551937       -2.5940624505       -8.6043881579
  H        13.3222331304       -0.9104292394       -8.7581046235
  H        -3.2304546676       14.6424511330       15.7023125888
  C        -3.3003343791       13.7254304311       16.3215369741
  H        -4.2252605394       13.7445386344       16.8780100191
  C        -2.1595618523       13.4766945684       17.3362109392
  C        -3.3502195099       12.5857178112       15.3039959284
  C        -2.7105854102       13.1484267537       18.7058476296
  H        -1.5016668836       12.6436595549       17.0196418557
  H        -1.5839337205       14.3277329041       17.3091947402
  H        -4.1268671054       11.8457318490       15.5360185191
  H        -3.5536862689       12.9290348151       14.3054498799
  H        -2.4887362393       11.9061166735       15.2798102241
  C        -1.6804339520       12.9194257781       19.7748949455
  H        -3.2771116388       12.2434854322       18.6511494486
  H        -3.3582746582       13.9326724626       19.0470142410
  C        -2.3338381755       12.9188046673       21.0908389055
  H        -1.2111641413       11.9864223006       19.5335255224
  H        -0.8623553891       13.6413407657       19.7354481696
  C        -1.3999304167       12.2917950332       22.0935602425
  H        -3.3183050050       12.3869840663       21.0395979927
  H        -2.6371397836       13.8770822873       21.3502909973
  C        -0.2735362904       13.1972131135       22.5884446567
  H        -2.0245303076       12.0077457838       22.8752242228
  H        -1.1125388659       11.3407555931       21.6261775778
  C         0.8804460269       12.5118338347       23.3227760558
  H         0.0643806424       13.8538619532       21.7408362350
  H        -0.6658158672       13.8749885263       23.3318591185
  C         1.3257953009       11.2798514062       22.7305948986
  C         0.6155506429       11.9051301984       24.6277249371
  C         2.0824096062       13.4419207632       23.4346318190
  C         1.2152077879       10.1838807576       23.5881041750
  C         1.7044121468       10.8156386063       21.4582229186
  C         0.6924046600       10.5763382925       24.7784046732
  C         0.1626742942       12.5789709145       25.7304105616
  H         2.2691169500       14.1609968139       22.5429500364
  H         1.9231401396       14.0853729547       24.2998645779
  C         3.4601543099       12.8189121273       23.7039913275
  S         1.5215363212        8.6683543855       22.8627152836
  C         1.8797305811        9.4457960747       21.3664700858
  H         1.9352165491       11.5501060487       20.7740821843
  C         0.3775823756        9.9911389260       25.9811129290
  H         0.2586817856       13.6613041531       25.5722664718
  C        -0.2178528726       11.9641867823       26.9041410380
  H         3.8212222296       12.3455513983       22.8033336346
  H         3.3062836836       12.0832734238       24.5010047161
  C         4.5388257587       13.7175782219       24.2779286428
  C         2.4322303834        8.7388513025       20.2295981262
  C        -0.1185399107       10.6385113290       27.0756694648
  H         0.5471087676        8.8707317933       25.9959541397
  C        -0.7776450878       12.3495862012       28.1222270386
  H         5.2272774834       13.1169456795       24.9065829287
  H         4.0599886237       14.5054696160       24.8511948550
  C         5.3289824808       14.4294751934       23.2571535862
  C         2.4891262778        7.3350189231       19.9768852884
  C         2.9231370954        9.5746241610       19.1346419283
  C        -0.6293360531        9.9227487509       28.3374624989
  C        -0.8713509177       11.2548160220       28.9947136709
  S        -1.1441857854       13.7828596029       28.8611659283
  H         5.8726810107       15.3093500258       23.5900799872
  H         4.6473548486       14.7208318261       22.4495085058
  C         6.3310635179       13.4661906584       22.5377782328
  N         2.0410819332        6.3786713303       20.8986570678
  C         2.8280878919        6.8418652423       18.7572167514
  C         3.1802621628        9.1224741320       17.8345007888
  H         2.9978530958       10.6137842510       19.3600876004
  C         0.5637052608        9.0961485174       28.9990394378
  C        -1.8759940214        9.1044412692       28.1947584684
  C        -1.1862265306       11.6273563006       30.2921648197
  C        -1.3235485914       12.9746155355       30.3560306287
  H         7.3392789734       13.7212708933       22.9623238646
  H         6.2179861452       12.4133481885       22.8665072410
  C         6.3038711465       13.5793137598       20.9805737417
  S         2.1826419705        4.9457297103       20.2134836841
  N         2.8267067924        5.4502495616       18.7913642922
  C         3.1270396699        7.6812664951       17.6277820661
  H         3.3317607308        9.8173894496       17.0566813353
  H         0.9373440627        8.3592303562       28.2769190271
  H         0.1836933532        8.5554055358       29.8283766349
  C         1.8335035703        9.8754755820       29.4296851856
  H        -1.6072449756        8.3882051400       27.4458716187
  H        -1.9800814372        8.4976822389       29.0738711254
  C        -3.1320129365        9.9168090258       27.8055768623
  H        -1.2413589515       10.8186219146       30.9866997028
  C        -1.5319727377       13.6251460107       31.6586075489
  H         6.0986575630       14.5412296329       20.6046615546
  H         5.4246967645       13.0540712804       20.5074331932
  C         7.5778838618       13.0080266221       20.4140779700
  C         3.2056469214        6.9967043896       16.3380737463
  H         2.2455131213       10.3050498985       28.5008996220
  H         1.5912414516       10.6698373714       30.0691084297
  C         2.9967705338        9.0963682083       30.0218105753
  H        -2.9185544376       10.3898114751       26.8653280785
  H        -3.3673345114       10.6287403794       28.6154299954
  C        -4.4150827039        9.0584781069       27.7447706681
  C        -1.6105659355       15.0290035007       31.8448287887
  C        -1.6198786970       12.8130609791       32.9202046277
  H         8.4948842553       13.4691284589       20.6510465763
  H         7.6917403650       11.8673120389       20.5650108968
  C         7.6077545550       13.2343117691       18.8709968288
  H         3.1212756950        5.9328658014       16.4513321380
  C         3.6446435234        7.4430962819       15.1405061199
  H         3.4240779211        8.4786095073       29.2498770288
  H         2.5363293178        8.4985286622       30.8244682532
  C         4.0691124033       10.0113737392       30.6491068368
  H        -4.3084535117        8.3237655650       26.9382708922
  H        -4.5575601629        8.6049758294       28.7441837699
  C        -5.5890106592       10.0039562044       27.5279182203
  N        -1.4916840606       15.9673047593       30.8135437406
  C        -1.8833208432       15.5978685475       33.1004188419
  C        -1.9579129736       13.3585019278       34.1334051289
  H        -1.5136448596       11.7162562031       32.7808727394
  H         8.1141668460       14.1984022529       18.7283298729
  H         8.2189401219       12.3872606851       18.5096283423
  H         6.6566279950       13.1063589535       18.4385711835
  S         4.1058371663        9.0195121743       14.6164419927
  C         3.8782939593        6.4447939536       14.0830693992
  H         4.0381069606       10.9304690395       30.0427175816
  H         3.6553463573       10.2502659219       31.6552058974
  C         5.4198621030        9.2858412737       30.5172210356
  H        -5.6938839399       10.8817871020       28.1709999887
  H        -6.4020641112        9.4131056875       27.9043676821
  C        -5.7373960830       10.4147262733       26.0431796354
  S        -1.4882611772       17.5010472396       31.5008518008
  N        -1.8738547082       16.9876826823       33.0117758012
  C        -2.1866274968       14.8205076777       34.2600670533
  H        -1.9943210988       12.7289678614       35.0502200011
  C         4.3615661517        8.3128387580       12.9793529424
  N         4.2953372188        7.0289599191       12.9302545279
  O         3.7216963524        5.2499242053       14.2698427029
  H         6.1078113783       10.1069519247       30.7245225736
  H         5.7353257982        8.8938659993       29.5962562235
  C         5.6412952050        8.2445445622       31.6167020497
  H        -5.0235497021       11.2683655753       25.9617326411
  H        -5.3720891591        9.6919156322       25.3399280326
  C        -7.1409067738       10.8292012822       25.6508775249
  C        -2.4681700698       15.4284422340       35.4814654256
  S         4.6632272802        9.1901270376       11.5626258590
  C         4.3714450917        6.2512488700       11.6598612954
  H         6.3617692482        8.6670735838       32.3841042682
  H         4.6277601528        8.1212020548       32.0054665545
  C         6.2310706617        6.9194904686       31.2115667614
  H        -7.0697791608       11.2192356327       24.6692254206
  H        -7.4903472831       11.6275260223       26.3080734402
  C        -8.0774298027        9.6131792444       25.7534562241
  H        -2.0927163166       16.4234959532       35.4253759666
  C        -2.9464514505       14.9649686602       36.6454241058
  H         5.2494815562        6.5767058955       11.0694267458
  H         4.4934238594        5.2313196250       11.9163083457
  C         2.9859323869        6.3223234075       10.9035048309
  H         6.7307314644        7.1455084418       30.2878864282
  H         5.4229921673        6.2377860441       31.0448138271
  C         7.1880078451        6.3998172923       32.3028674356
  H        -7.6335537605        8.8037442276       25.2123586848
  H        -8.2445085879        9.2436480372       26.7554222901
  C        -9.4605465611        9.9385986743       25.1296325021
  S        -3.7584999101       13.4452704908       36.8556928287
  C        -3.1016907687       16.0039705135       37.7059372726
  H         3.0990476326        6.8120552562        9.9310051154
  H         2.5645659408        5.3042835894       10.8054741552
  H         2.2025474784        6.9082881561       11.3237715964
  H         7.9245007359        7.0834350636       32.5873613406
  H         7.7514188113        5.5553391789       31.9920197353
  H         6.6049021714        6.0368275515       33.0922082755
  H        -9.5084145173       10.4237156502       24.2123532949
  H       -10.1131120439       10.4264398730       25.8133207205
  H        -9.9962174129        9.0231014640       24.8359897092
  C        -4.3380044899       14.1843173824       38.3613256628
  N        -3.9178172487       15.4171982663       38.6574567481
  O        -2.6497908594       17.1571704649       37.7464909605
  S        -5.3152167808       13.2464889094       39.4851851395
  C        -4.0545648363       16.1235869807       39.9251794844
  H        -4.1295232664       17.1370016833       39.7560297117
  H        -4.9964983683       15.9604846406       40.4056293683
  C        -2.8947937344       15.8653603006       40.8628344309
  H        -2.7888391010       16.6037850271       41.7151622399
  H        -3.0652896723       14.9169343638       41.3367011063
  H        -1.9158753444       15.7778123877       40.3132398920
