352
i=
  H         2.4788370832        3.3525125552       12.4784129678
  C         2.6978251691        2.2396118648       12.2968210549
  H         2.0568354688        1.7038390732       13.0024431620
  C         2.5120695797        1.7088326275       10.9073535223
  C         4.1577319583        1.9971858659       12.7768359938
  C         3.5596668065        2.1376494618        9.8370643403
  H         1.5123387417        2.0536255095       10.5086381933
  H         2.3520661801        0.6281249809       10.7379390776
  H         4.6262340441        1.1283560975       12.2194568850
  H         4.0963384443        1.7740967834       13.8584384159
  H         4.7281823301        2.8924529211       12.7134065936
  C         4.4991649051        1.0372937368        9.3719394584
  H         3.0241434222        2.5212375402        8.9459019350
  H         4.1844990616        2.9600065575       10.2179120341
  C         5.4504906265        1.3920300486        8.1736001365
  H         3.8468518220        0.2648757876        9.0074961863
  H         5.0858215778        0.4607890948       10.1516816031
  C         6.5904303390        2.2931464542        8.5622647583
  H         4.9312864624        1.7611990285        7.3185312174
  H         6.0057284175        0.5348381661        7.8086583022
  C         7.7512591660        1.5625725803        9.1145029064
  H         6.8910733072        2.7268290216        7.6209533705
  H         6.3028693548        3.1602682932        9.1677764884
  C         8.9843120528        2.4839587747        9.4677812946
  H         8.0253236312        0.8040414267        8.4063279823
  H         7.4078363880        1.0949293539       10.0201917518
  C         8.5872523606        3.8031742506       10.2231524945
  C         9.3008100356        3.2189432903        8.2407554544
  C        10.0771902869        1.7050926957       10.2605743504
  C         8.8565545894        4.9017686599        9.4521171882
  C         8.0673797592        4.1764226318       11.5073633381
  C         9.1609120970        4.5709794217        8.1838149906
  C         9.8067724608        2.6589571504        7.0904923959
  H         9.5882199482        1.0931210530       10.9835990863
  H        10.6221021050        1.0319454395        9.6325924952
  C        11.1808163077        2.6489675533       10.9406955708
  S         8.5554526416        6.3609097139       10.2946852476
  C         7.9578239084        5.5335755852       11.6847489426
  H         7.8396514384        3.4583023682       12.2262976260
  C         9.6030660040        5.2545758847        7.0951123817
  H         9.8207494344        1.5949631772        7.0764521658
  C        10.1721555566        3.3146654040        5.9681924800
  H        10.7492568771        3.5503028099       11.2006995057
  H        11.7548579792        2.9757416478       10.0552330973
  C        12.1729249234        1.8327252366       11.9530402033
  C         7.5277775389        6.2534890472       12.9583368737
  C        10.0683265231        4.6504041859        5.9283451604
  H         9.6190261572        6.3151407468        7.1915835927
  C        10.5928530295        2.9527210308        4.6634492465
  H        13.1071525031        2.2829583869       11.9254402077
  H        12.6094618160        0.8722230519       11.5718424710
  C        11.5782611043        1.7146590515       13.3184990630
  C         7.4062403581        7.6678773279       13.0402550396
  C         6.9684602086        5.5683087038       14.0827958751
  C        10.4319621486        5.3941160433        4.6537639257
  C        10.7701052598        4.0890094450        3.9088379956
  S        10.9026669760        1.5307362380        3.8053204778
  H        10.8140992730        2.4753838265       13.5187065209
  H        11.0946741378        0.7650818474       13.4050727607
  C        12.6578585295        1.7968906139       14.3923708076
  N         7.6523656114        8.4979992448       12.0302728179
  C         7.0233578194        8.3056020537       14.1840297593
  C         6.6355872483        6.1646015223       15.2512346624
  H         6.8381488934        4.5216912522       14.0803485639
  C        11.6980814987        6.2191896062        4.9612788207
  C         9.3495939494        6.2123964278        3.9048496344
  C        11.2958888627        3.8024773891        2.6353352360
  C        11.4243693830        2.4614389026        2.4365215116
  H        13.3359763697        2.6207362116       14.2265801995
  H        13.2863014084        0.9415695301       14.4458919199
  C        12.1112421093        2.1019740608       15.7818973147
  S         7.4773423652       10.0428632255       12.5962137214
  N         7.1114784910        9.6507716676       14.1412882169
  C         6.6812963472        7.5851049394       15.3641001014
  H         6.2606994077        5.4929564068       16.0072218442
  H        11.5999365536        7.0567432896        5.5995998474
  H        11.9709789076        6.6997169587        4.0557808955
  C        13.0184350791        5.3656663164        5.1418196131
  H         9.2116541670        7.1512246784        4.4259381351
  H         9.8169821790        6.5660060014        2.9638711176
  C         8.1031156648        5.3641953555        3.5274906700
  H        11.4204782949        4.6164674433        1.9494115568
  C        11.8615661802        1.8004107158        1.1734411777
  H        11.9362451262        3.1848540359       15.7465217747
  H        11.1635380868        1.5265550676       16.0308900080
  C        13.1600064004        1.8378401950       16.8008101381
  C         6.3555147218        8.3072222304       16.5507538513
  H        12.9355629854        4.6146060917        5.9404845810
  H        13.1890793810        4.8295032069        4.2314014546
  C        14.2546546776        6.2925454481        5.3132355814
  H         7.6874055236        4.8447053739        4.4302354199
  H         8.2610283915        4.4905539578        2.9192284157
  C         6.9407817436        6.2880735030        3.0653942789
  C        11.8673443668        0.3916314030        0.9901557104
  C        12.0499985069        2.6847301717       -0.0015298558
  H        14.1937113131        2.0667123313       16.6226763763
  H        13.2526262114        0.7822343126       16.8117135487
  C        12.6473608290        2.4424929172       18.0545115189
  H         6.3821626970        9.3506469549       16.3699480397
  C         6.1881991426        7.9860465127       17.8739026817
  H        14.0330998914        6.9796100204        6.1245671623
  H        14.5020004630        6.9225595988        4.4872649265
  C        15.4210687472        5.4719210243        5.6303787221
  H         6.0444331192        5.9061804346        3.5115130544
  H         6.9188219453        7.3257339392        3.3417498761
  C         6.7841213465        6.1119833815        1.5442618005
  N        11.6594553742       -0.5723978576        2.0165770499
  C        12.1083233126       -0.1658202367       -0.1838062434
  C        12.3157182915        2.0510200623       -1.1881430700
  H        12.2764026553        3.7371357197        0.0568338009
  H        13.4982022436        2.9444195460       18.4980269554
  H        12.0528586878        1.6469865773       18.6303787873
  H        11.9253971242        3.2450587489       17.7357852701
  S         5.8923257036        6.4208001230       18.4693967638
  C         6.1323189272        9.0929393235       18.8848220332
  H        15.0943336194        4.7392758453        6.3900320739
  H        15.7854545306        4.8460988807        4.7664060708
  C        16.5918918637        6.1914368642        6.2913494770
  H         7.3525911949        5.1837380000        1.2097248173
  H         7.1964788879        7.0195265688        1.1094067039
  C         5.2965449003        6.0400294769        1.1291149128
  S        11.5564386699       -2.0373629809        1.2937345584
  N        12.0168968864       -1.5692071533       -0.1842587916
  C        12.4097659557        0.5640258670       -1.3162507913
  H        12.4884498644        2.6727890824       -2.0650381336
  C         5.6719989078        7.2589519578       20.0509561830
  N         5.7538497612        8.5802635320       20.0690600539
  O         6.3639711667       10.2875282357       18.6157703744
  H        17.2020158253        6.6547249170        5.4576223676
  H        16.2505072332        6.9503267602        6.9765530291
  C        17.3625794408        5.2561669766        7.1620243363
  H         5.2485285723        5.9325956583        0.0407393565
  H         4.7319901522        5.1657143436        1.5199628520
  C         4.4821444296        7.3156920470        1.4604982452
  C        12.7922341881       -0.0830240036       -2.5214383100
  S         5.3622218058        6.5065860407       21.5918700038
  C         5.5943065990        9.5194468037       21.2108588973
  H        16.6802228203        4.9578869886        7.9912575371
  H        17.6530805831        4.4680416191        6.4996622277
  C        18.5497429332        5.9512165709        7.7863639068
  H         5.0275907618        7.9115606980        2.1460472055
  H         3.4993957384        7.0082026954        1.8759957330
  C         4.2760443176        8.1754750637        0.2137973548
  H        12.4681504763       -1.0817387847       -2.6352673974
  C        13.3568045132        0.2376283675       -3.7564530181
  H         5.0385773150        9.0532635563       22.0522153935
  H         4.9370300061       10.3697864602       20.8767071663
  C         7.0172174624        9.9706291962       21.6263883446
  H        18.9113294913        5.3751058405        8.6152007429
  H        18.2806034431        6.8830893715        8.2242078736
  C        19.7889853006        6.0545842577        6.9956759030
  H         5.1332192500        8.0750474311       -0.3829574361
  H         3.4098193653        7.6957224361       -0.3487214277
  C         3.8752614747        9.5144797519        0.7547277451
  S        14.0705099176        1.7486204234       -4.1257646466
  C        13.4156846526       -0.7844624425       -4.8550096054
  H         7.6302101288       10.5554059004       20.8989328157
  H         7.5511764963        9.0394529198       21.9435801400
  H         6.8346132909       10.5302999391       22.4639019069
  H        19.5825358493        6.6627890122        6.0427809518
  H        20.6190635508        6.4463965709        7.5951770830
  H        20.1027584727        5.0679036174        6.7081169978
  H         4.6516477795       10.2015129713        0.6849061119
  H         3.1039384693        9.9504835784        0.0668059791
  H         3.3480282426        9.4616201138        1.7212122273
  C        14.4078327096        1.0885972408       -5.7454353240
  N        14.1212586512       -0.2413409313       -5.9086053329
  O        12.9000636013       -1.8994917070       -4.8786478563
  S        15.1541307106        1.9671757734       -7.0570072915
  C        14.2643374229       -0.9663223427       -7.1159056454
  H        14.4946005639       -2.0306897499       -6.8783328646
  H        15.1158221417       -0.6645394661       -7.7984039060
  C        13.0034616943       -0.8670841412       -7.9056144440
  H        12.3374690214       -1.7038102124       -7.6450196678
  H        13.3506669212       -0.9150533673       -8.9527806878
  H        12.4270706141        0.0868856526       -7.8778264441
  H        -2.5104540616       12.2806311526       16.6897222023
  C        -2.5273401593       13.3040575368       16.1548986822
  H        -1.4782154458       13.4642881907       15.9090621959
  C        -2.9566881631       14.3608193985       17.2441360674
  C        -3.5725925973       13.1775242647       14.9836177297
  C        -3.5298948758       13.6966687338       18.5548841117
  H        -2.0937206945       14.9833932746       17.6005770583
  H        -3.6729654009       15.0366514782       16.7715485915
  H        -4.4625092968       12.7959955768       15.4235384262
  H        -3.7863065678       14.1217156612       14.4723203454
  H        -3.2826650024       12.4361225448       14.1944023084
  C        -2.6585675451       12.8957633936       19.5371354092
  H        -4.3684092206       13.0287610140       18.2455526227
  H        -4.1165210368       14.3563455746       19.2310070576
  C        -3.0781628502       13.0061802415       21.0294919016
  H        -2.4730036000       11.8359370202       19.2768137023
  H        -1.6868199914       13.3839798592       19.5370504565
  C        -2.0391308705       12.4115414312       21.9576982506
  H        -3.9817459124       12.3934989873       21.1865385032
  H        -3.4660001894       13.9475052370       21.3909115128
  C        -0.9917294863       13.4138969645       22.3649323526
  H        -2.5384474918       12.0849799843       22.8706067899
  H        -1.6193066655       11.5529701789       21.5067670734
  C         0.3111620535       12.7241809076       23.0454858495
  H        -0.6683874995       14.0886020904       21.5871323224
  H        -1.3990738349       14.1577489437       23.0917923513
  C         0.7304378608       11.4035952883       22.4229598457
  C         0.0216541288       12.0307643832       24.3617570910
  C         1.4693269942       13.7812912049       23.2411199945
  C         0.5685994278       10.2875484373       23.2336616492
  C         1.3137121031       11.1167247382       21.1967151673
  C         0.0927855875       10.6832098676       24.5151838187
  C        -0.2975659964       12.6839008199       25.5324019246
  H         1.5469858728       14.2750160797       22.2723377980
  H         1.1681044873       14.5934670137       23.9750434601
  C         2.7477495563       13.0478116878       23.7157385438
  S         1.1502948040        8.8379585039       22.5936138348
  C         1.5923903682        9.7362868976       21.2103648669
  H         1.3837784987       11.8961695574       20.3992962717
  C        -0.2725604907       10.0315597118       25.6265607906
  H        -0.2930085342       13.7462172688       25.5008532901
  C        -0.6873969892       12.0575823505       26.6937610234
  H         3.1760275707       12.3274404894       23.0305835391
  H         2.5418753638       12.5632407336       24.6685406082
  C         3.8030853408       14.1364440293       24.0402987207
  C         2.1446747585        9.0586374166       20.0029325196
  C        -0.6399634415       10.7275594138       26.8054165498
  H        -0.1896598690        9.0015717576       25.5851774014
  C        -0.9589514437       12.4391482587       27.9876405556
  H         4.5420850063       13.5979522762       24.6932875581
  H         3.2567280750       14.9007405795       24.6229655206
  C         4.3511984469       14.8179853088       22.8409219465
  C         2.1973221788        7.6778498790       19.7542881367
  C         2.5364304015        9.8506661858       18.7500237444
  C        -0.8347895693        9.9901360001       28.0555766640
  C        -1.1103512230       11.3064781399       28.7966099205
  S        -1.1498088088       13.9073531926       28.7591043152
  H         4.9139521549       15.6550337222       23.2827585540
  H         3.5684998099       15.0902467620       22.1750426598
  C         5.1444417285       14.0524444069       21.8763870970
  N         1.8810152071        6.7431123649       20.7062267792
  C         2.5482403724        7.1164098324       18.5380906262
  C         2.8014356230        9.2967901971       17.5093033228
  H         2.7758198121       10.8721317369       18.8623566769
  C         0.4145700674        9.2266591981       28.5900030994
  C        -2.1098751711        9.1456329399       27.9750506228
  C        -1.4368894226       11.6923183776       30.0890807344
  C        -1.5038948900       13.0346193786       30.1895821336
  H         6.0470319435       14.7091881000       21.6427056102
  H         5.4863539717       13.1085606902       22.2539864545
  C         4.3631594009       13.8224806816       20.6637966943
  S         2.1344742222        5.2745548707       20.1278176214
  N         2.6309644998        5.7079389002       18.6357772225
  C         2.7816997523        7.8099510334       17.3710190785
  H         3.0326768526        9.9294171248       16.6799272754
  H         0.6431084342        8.4793465574       27.8714861806
  H         0.1471725697        8.7707873120       29.4742039668
  C         1.7842411621        9.9792002153       28.6877056047
  H        -1.8577246542        8.3350320647       27.3990770195
  H        -2.4407568965        8.7374121156       28.9147367589
  C        -3.4038481370        9.7341190562       27.4003472123
  H        -1.4731095435       10.9659107371       30.8603347991
  C        -1.7591668083       13.7116504894       31.4926159077
  H         3.9327275122       14.7131063611       20.2173119627
  H         3.5358850299       13.1195770211       20.7427557954
  C         5.0736608715       13.3246688972       19.3296276347
  C         3.1316386783        7.0794967198       16.1962248831
  H         2.1805022849       10.0770184963       27.6800149281
  H         1.7184476488       10.9551649357       29.1380389820
  C         2.8192436572        9.2699186185       29.5712597135
  H        -3.2418231273       10.5076141507       26.6758095065
  H        -3.8497226573       10.2197434607       28.2462487480
  C        -4.2645163767        8.6094278470       26.9681026360
  C        -1.9300250142       15.1521540609       31.6025800394
  C        -2.0554495987       12.8972160124       32.7031888168
  H         4.8162577728       12.3343512728       19.2007401665
  H         4.6198547465       13.9148650360       18.5451640164
  C         6.6479202936       13.4769604939       19.3750064024
  H         3.0921210708        5.9735676123       16.1828082361
  C         3.3468395783        7.4591443123       14.8918632724
  H         3.0001772825        8.3438575212       29.1756790793
  H         2.3298587215        9.1043388556       30.5484689337
  C         4.1376414189       10.0398991960       29.7191053617
  H        -3.7813743799        7.9954667896       26.2305937731
  H        -4.3641710334        7.9417397543       27.7454056463
  C        -5.6956737172        9.1887288617       26.5841427134
  N        -1.7964967365       16.1241943639       30.5366770070
  C        -2.3679083107       15.6512873656       32.7804765771
  C        -2.3257378604       13.4922711456       33.9476983161
  H        -1.7564554607       11.8374343396       32.6484335207
  H         6.9356910320       12.8728951110       18.4412814735
  H         6.8588792033       14.5366608737       19.3359850462
  H         7.1607928365       12.9556324336       20.1524427301
  S         3.6471866689        9.0286406522       14.2770843857
  C         3.4268300927        6.4075783611       13.8320192209
  H         4.1525717433       10.8465091744       29.0148373661
  H         4.1640028061       10.5628255313       30.6594886767
  C         5.3310590278        9.1069156669       29.5859430065
  H        -6.0353875221        9.9724459196       27.2378074855
  H        -6.4718269734        8.4256649414       26.3639548026
  C        -5.6579670497        9.8307647083       25.2218367745
  S        -2.1238029880       17.5543583876       31.1247105737
  N        -2.4641654901       17.0853444485       32.6339737251
  C        -2.5130900317       14.9667318019       34.0117338398
  H        -2.4862645310       12.9303902303       34.8411705508
  C         3.6378460414        8.3416065429       12.6347785839
  N         3.7106775239        6.9796576115       12.5998057417
  O         3.1850275481        5.2455718393       13.9846841241
  H         6.2657360137        9.6666351583       29.5282427720
  H         5.2222006076        8.5747093414       28.6725300618
  C         5.5259082667        8.0719286257       30.7705249858
  H        -4.8091490836       10.5100397352       25.0760861704
  H        -5.6440513941        8.9791617949       24.4493216318
  C        -6.9834552978       10.5893173140       24.9582952344
  C        -2.8133578840       15.6842686013       35.2032111492
  S         4.1780291167        8.9991265637       11.2055444256
  C         3.6025319592        6.0658082595       11.4165309992
  H         6.1107675722        8.5474914646       31.5445174921
  H         4.5291345156        7.8013893228       31.1462855473
  C         6.2666134737        6.8293225649       30.3563917534
  H        -6.9263054975       11.1920182085       23.9912448063
  H        -7.0101495217       11.3025891909       25.7572564827
  C        -8.3258108712        9.8715809397       24.8442943009
  H        -3.0008835288       16.7354595717       35.0981802131
  C        -3.3453105773       15.2586791147       36.4531734359
  H         4.3161977827        6.4000716845       10.6154247744
  H         3.8870283408        5.0594805710       11.7056780782
  C         2.1011144808        6.1222495781       10.9780762230
  H         7.2857588025        6.9836175842       29.9464607798
  H         5.6192211806        6.3851663625       29.5422480619
  C         6.2900823219        5.8108255348       31.5106564211
  H        -8.8024049428       10.6185573194       24.1867878203
  H        -8.2187060016        8.8945903927       24.3154720575
  C        -9.1771381596        9.7702551356       26.1109755834
  S        -3.7077037954       13.6400926958       36.9556734775
  C        -3.6353470998       16.2761021373       37.5096163796
  H         1.8359103222        5.2905945894       10.3526791938
  H         1.4144888111        6.0692581389       11.8894460032
  H         1.9936869514        7.1141452187       10.4592672890
  H         7.3161681623        5.6878255674       31.5181959862
  H         5.8619321315        4.9152344754       31.1404567155
  H         5.8676504522        6.0333904309       32.4475175822
  H        -9.3406095523       10.8078707588       26.5492412195
  H        -8.6349096786        9.2775942856       26.9036049607
  H       -10.1556470079        9.2444708410       25.9077382722
  C        -4.1046355257       14.3214579870       38.4572887584
  N        -4.0659697337       15.6632782886       38.5803071935
  O        -3.5063171939       17.5285601185       37.3564632790
  S        -4.7840352736       13.4221585792       39.7101928521
  C        -4.3992010877       16.4894041893       39.7494155987
  H        -4.6310617531       17.5152954882       39.4886875332
  H        -5.1958178589       16.1000432679       40.3176768391
  C        -3.2127388154       16.4068867835       40.7280104686
  H        -3.0664646569       17.4178762973       41.1323140387
  H        -3.3867047387       15.7476000762       41.5803861253
  H        -2.3438007292       15.9664252588       40.2074818755
