352
i=
  H         4.6972713456        1.6398541048       12.6813115300
  C         3.9549079426        2.5058430206       12.8608484072
  H         4.6029035841        3.3522415807       12.8173578266
  C         2.9978651786        2.4596658037       11.6924729925
  C         3.2706488198        2.4393611248       14.1911483996
  C         3.8183322136        2.5707248990       10.4754024329
  H         2.3298988141        3.3490494495       11.9621461262
  H         2.3696218564        1.5611851399       11.5885907461
  H         2.0912343774        2.4549057491       13.9992461170
  H         3.3200959262        3.3308606320       14.9437498772
  H         3.5366530882        1.5324978588       14.7673392069
  C         4.2816526929        1.2428852194        9.9036612058
  H         3.2373983629        3.0790397792        9.6707724075
  H         4.5810424067        3.3867796248       10.5936513820
  C         5.2002482138        1.3036614616        8.6297974925
  H         3.3769708522        0.6689099770        9.6722775656
  H         4.8303212611        0.6565642748       10.7166655062
  C         6.4205787894        2.2302617213        8.5902785405
  H         4.5694208409        1.6815649728        7.8393766474
  H         5.5053599093        0.2982507364        8.3729311618
  C         7.6494268162        1.5758037714        9.2445379620
  H         6.4871135523        2.7024414876        7.6032764080
  H         6.0008438983        3.0732423354        9.2679619388
  C         8.8243458037        2.5768554913        9.2946533956
  H         7.9284344119        0.7389079088        8.5687511835
  H         7.4287114719        1.1939378972       10.2553482002
  C         8.3835340262        3.8694608404        9.9074167327
  C         9.1976448972        3.2025307108        8.0026420324
  C        10.0210125610        1.8295984646        9.9750837285
  C         8.7097497952        4.9577935742        9.1184721108
  C         7.9235820983        4.2892645586       11.2371093042
  C         9.2356359594        4.5743930217        7.8704284829
  C         9.6188130105        2.5980882072        6.8164915198
  H         9.7693913033        1.3863753390       10.9991402025
  H        10.4069411046        0.9910470562        9.5438420462
  C        11.1276449264        2.8465722133       10.2692510857
  S         8.4302235891        6.4352651845        9.8292204693
  C         7.8575568941        5.6362900580       11.3016582628
  H         7.7785279753        3.4838281551       11.9220787542
  C         9.7108621668        5.1740532358        6.7411598868
  H         9.5678962460        1.5501991955        6.6364257582
  C         9.9968409823        3.1687032183        5.6569250297
  H        10.8034453269        3.7929781793       10.7821604213
  H        11.6297204987        3.1822673418        9.3228253504
  C        12.3742994737        2.2734824978       11.0779721716
  C         7.5247344053        6.3383504787       12.5660992284
  C        10.0974935990        4.5772486999        5.5845353739
  H         9.8748804888        6.2581436580        6.7702852096
  C        10.3636498876        2.8233897598        4.3906983066
  H        13.2765812755        2.9440645268       11.3300026041
  H        12.7006857973        1.2775368839       10.8041754159
  C        11.8246740056        1.9357815088       12.5299904611
  C         7.5868813757        7.7724412819       12.7840234940
  C         7.1130379627        5.4799442315       13.6940436416
  C        10.6343721920        5.2603854392        4.3913790264
  C        10.7383530602        3.9096071324        3.6427500893
  S        10.6761164824        1.3467184457        3.5993341583
  H        11.1355710015        2.7567562742       12.8683389104
  H        11.2876936381        1.0179439642       12.3826733215
  C        12.9419797116        1.8657153274       13.5567839365
  N         7.9561753450        8.6800737023       11.8907706081
  C         7.5524628317        8.2950543254       14.0278988482
  C         7.0276128354        6.0420081514       14.9158467211
  H         6.7381409162        4.4736406637       13.6301431841
  C        12.0360391523        5.9369363337        4.5825191370
  C         9.5410172490        6.1229132323        3.7253783937
  C        11.1820721936        3.5841739373        2.3615087021
  C        11.1597028935        2.2304537886        2.1666709615
  H        13.7602243930        2.4568272311       13.2176371551
  H        13.3800951999        0.8190093952       13.5988804319
  C        12.5512154462        1.9570301832       14.9952035436
  S         7.9986160875       10.0924999774       12.5932224690
  N         7.7398412670        9.7097195606       14.0958512552
  C         7.2640002973        7.4457978899       15.1671348649
  H         6.8123429852        5.3787963113       15.6543706051
  H        12.0308961053        6.7057838058        5.3805455329
  H        12.5581306521        6.5051122460        3.8316425075
  C        13.0945077575        4.9638922464        5.0701026636
  H         9.2091195552        6.8569502210        4.4559241367
  H        10.0617773394        6.6416863450        2.8636760057
  C         8.2140418815        5.3437306827        3.1860063657
  H        11.5452418423        4.3538603378        1.6137843978
  C        11.4374479305        1.4770315030        0.8745787404
  H        11.9549163269        2.8037668653       15.1251514666
  H        11.8215494058        1.1264047350       15.3350565906
  C        13.6086385722        1.9314979983       16.0150397679
  C         7.1333109414        8.0789292032       16.4976028400
  H        12.7601783261        4.2979811004        5.7789214361
  H        13.2581916298        4.2838704123        4.2778194165
  C        14.4151366567        5.6469386059        5.4573314080
  H         7.7574662332        4.8269160448        4.0698049390
  H         8.3792624266        4.6839808006        2.4430116787
  C         7.2188277920        6.2239280247        2.4114553371
  C        11.4172780468        0.1189876493        0.6018201446
  C        11.7218362507        2.2826340483       -0.3401608565
  H        14.1145071242        2.9048762693       15.9536869741
  H        14.3501280571        1.1123150520       15.9340180535
  C        13.0312282863        1.9380266485       17.4497624316
  H         7.5010213214        9.1056753067       16.5287137318
  C         6.7113079497        7.7003489802       17.6914928705
  H        14.1691522228        6.3619425987        6.2273840587
  H        14.8221095109        6.2256122946        4.6110221611
  C        15.6145387178        4.8575318696        5.8510564679
  H         6.7839518109        7.0085098146        3.0699123708
  H         7.6452413649        6.7481241059        1.4802987674
  C         5.9178421738        5.5363944170        1.9442483503
  N        11.1727703525       -0.9104521009        1.5524829031
  C        11.8292664821       -0.5589475506       -0.6176415293
  C        11.9698494056        1.7373950780       -1.5790656845
  H        11.4318009399        3.2556941050       -0.2642514763
  H        12.2812675371        1.1962787688       17.5258893008
  H        12.7710227804        2.8879818633       17.8316310259
  H        13.8577532681        1.6125440505       18.1914124935
  S         6.2726678298        6.1065439050       18.0999010099
  C         6.6569993703        8.7525153234       18.7213756580
  H        15.1722527818        4.2931095957        6.6845366846
  H        15.9652424710        4.1677014486        5.1792502763
  C        16.7253918844        5.6004534873        6.4044868738
  H         5.2274629656        5.1504956665        2.7633457793
  H         6.1570925369        4.6638732652        1.4250334463
  C         5.1299293004        6.4833338198        1.0694619077
  S        11.4092818820       -2.3444369287        0.8770429155
  N        11.9747838364       -1.9394737836       -0.5365294876
  C        12.1869866307        0.2208304206       -1.7901440120
  H        12.0176653753        2.3295350964       -2.4075707239
  C         6.1156817780        6.8121070712       19.7175647111
  N         6.2092222623        8.1861886413       19.8368568229
  O         6.7492843090       10.0001829648       18.5549868917
  H        17.0045022602        6.4386737575        5.7318516694
  H        16.3609336089        6.1944557711        7.1613980822
  C        17.8807313204        4.9199822600        7.0659074559
  H         5.7064928176        6.9278999191        0.3951138525
  H         4.3508095317        5.9447292823        0.6862441310
  C         4.2797305414        7.5281007036        1.9057900423
  C        12.5091664359       -0.4385152316       -2.9823629684
  S         5.5889454710        5.7599915394       21.0624308780
  C         6.1247576917        8.9291324147       21.0955712979
  H        17.5946985782        4.4795926998        8.0653148238
  H        18.2902460637        4.1599089783        6.4287205413
  C        19.0769262564        5.8398942524        7.0727530222
  H         4.8765820335        7.7427810478        2.7849762995
  H         3.3818926752        6.9659887092        2.2051689243
  C         3.8590428594        8.7749852860        1.1693880906
  H        12.3584431540       -1.5679933314       -3.0178393965
  C        12.9637428739        0.0298783529       -4.1785911896
  H         5.5955447294        8.2781702597       21.8484416542
  H         5.5768684446        9.8991293727       21.0902271529
  C         7.5144858851        9.2088472760       21.7112074575
  H        19.8943673384        5.4492141745        7.7392067350
  H        18.8533451983        6.8001816043        7.4583903118
  C        19.8236297670        5.9833284788        5.7353776319
  H         3.5338346055        8.6004595119        0.1041361840
  H         2.9461395648        9.1752564147        1.6039663676
  C         4.9177946018        9.8454011320        1.1660425787
  S        13.4274012800        1.7061705647       -4.5764814873
  C        13.0745027401       -0.9680646296       -5.2881478107
  H         8.3863609448        9.0073868467       21.0890620793
  H         7.5808151682        8.5678126414       22.5035419318
  H         7.5058867473       10.2471268182       22.1360533980
  H        19.5842386189        6.8803773750        5.1798455056
  H        20.9835372043        6.0193849685        5.9579631019
  H        19.6568815722        5.0575106329        5.1360808590
  H         5.0665511312       10.3640556391        2.1006083119
  H         5.7907202716        9.3707775686        0.8366816977
  H         4.6501087821       10.5588150960        0.3414781176
  C        13.9132443126        1.0942899723       -6.1001812560
  N        13.8185477659       -0.2984255441       -6.3123893763
  O        12.8410286652       -2.1410052460       -5.2933037604
  S        14.8036883436        1.9255941362       -7.4287881974
  C        14.0253844921       -0.8848750372       -7.6454506157
  H        14.3628746443       -1.9698071308       -7.5112268684
  H        14.9241371348       -0.4604814863       -8.0494761857
  C        12.8013483917       -0.7083844749       -8.4848305110
  H        12.8410299748       -0.9489187916       -9.5307325634
  H        12.6971366197        0.3665485492       -8.4553422184
  H        11.9323329827       -1.1795806797       -8.1813750724
  H        -3.0775272225       15.8282294963       16.9195464953
  C        -3.1740900662       14.7640598285       16.6995292084
  H        -4.2830719130       14.6670930990       16.7755236146
  C        -2.3457430973       13.7768372258       17.5468162128
  C        -2.9943196998       14.4645220492       15.2762900610
  C        -2.3373873169       14.1186544803       18.9532754098
  H        -2.7650224754       12.7978006837       17.5060079521
  H        -1.3342025387       13.7994135450       17.2450967356
  H        -3.4565377672       13.5402051595       14.9243799055
  H        -3.4137164035       15.3087406653       14.7163832138
  H        -1.8413462463       14.3851954996       15.0200256043
  C        -1.8872791623       13.0117237832       19.8954361570
  H        -3.2008401582       14.5751804373       19.3266322501
  H        -1.5189278299       14.7384571438       18.9621288407
  C        -2.1437951924       13.4662903846       21.3107144492
  H        -2.4647739771       12.1594685888       19.7973826333
  H        -0.9127263962       12.5653452425       19.7421011849
  C        -1.2622126702       12.9888992074       22.3868414134
  H        -3.2377494767       13.1831863780       21.4674880416
  H        -2.3629195596       14.5753741381       21.2142079859
  C        -0.0115022603       13.8904238394       22.6836985238
  H        -1.7460089205       12.9639875575       23.3460881155
  H        -1.0736608033       11.9898104889       22.1226727692
  C         1.1725513770       13.1012636930       23.2898351935
  H         0.2941264879       14.2731846351       21.7369264976
  H        -0.2509499085       14.8058669571       23.3167077021
  C         1.5187551768       11.7725952169       22.5717400713
  C         0.7699484838       12.3228731674       24.4703405890
  C         2.3952391921       13.9500081946       23.5905531946
  C         1.2254411815       10.6059677389       23.3339244685
  C         2.0938095059       11.3512788134       21.3151804727
  C         0.7075523525       10.9668612182       24.5392913915
  C         0.3558859637       12.9373307146       25.6417698390
  H         2.5715170004       14.5851000556       22.7697666310
  H         2.1224747419       14.5831523696       24.4806016294
  C         3.5999724162       13.1549263754       24.2162889207
  S         1.6774780977        9.1332036409       22.6249588373
  C         2.0960413458        9.9954877144       21.2043026298
  H         2.4744207333       12.0702667490       20.5552180411
  C         0.2754805896       10.3962595047       25.6696923894
  H         0.3861469486       13.9985185973       25.7203825065
  C        -0.1409916009       12.2795276693       26.7816555254
  H         3.8233594363       12.3839568712       23.4145280271
  H         3.4314581895       12.4664123734       25.0156707676
  C         4.8420071245       14.0600979459       24.5911303104
  C         2.3404701697        9.3246056589       19.8392965251
  C        -0.0952846219       10.9386789875       26.8588835926
  H         0.3423473910        9.3300829764       25.8312703332
  C        -0.5098507921       12.6941528397       28.0350487546
  H         5.3690478469       13.6308928105       25.4781500221
  H         4.4108973616       14.9179306099       24.9790127273
  C         5.6841748444       14.3708108435       23.3530581720
  C         2.6415098187        7.9221142257       19.6288873559
  C         2.5989226228       10.1794001414       18.6545818389
  C        -0.4683916093       10.2098590575       28.1391557139
  C        -0.7480667697       11.5975059846       28.8054113849
  S        -0.8563435918       14.1696991233       28.7933481685
  H         6.3742068966       15.2031801732       23.4955315148
  H         5.0650199598       14.7833010181       22.4668830759
  C         6.5421030114       13.2859576952       22.6578471046
  N         2.4604474775        6.9556361499       20.6331859544
  C         2.8519385370        7.4091339206       18.3341632170
  C         3.0080316457        9.5960248020       17.4242255285
  H         2.3619659869       11.2081705045       18.6112562460
  C         0.7581621794        9.4498600107       28.8585264811
  C        -1.7912512466        9.3698819836       27.8730093692
  C        -1.3136766427       12.0391501403       30.0120432471
  C        -1.2701182610       13.3972731048       30.2278779392
  H         7.2597890672       13.1016143813       23.4258775985
  H         5.8649470863       12.4629279613       22.4380553322
  C         7.2123191591       13.7130093294       21.3753324294
  S         2.4338444316        5.5111222869       19.9407559826
  N         2.8023490059        5.9943134754       18.4360948082
  C         3.1944863798        8.1255709446       17.1928951712
  H         3.0819303922       10.2940254208       16.4706616478
  H         1.0726213117        8.6473010554       28.2591511611
  H         0.3992585487        8.9159187618       29.6128403776
  C         1.8570718900       10.3339447596       29.3967151014
  H        -1.5090590298        8.6233707960       27.1327001693
  H        -2.0844741284        8.7878376888       28.7479981403
  C        -2.8949454157       10.1538142790       27.4105465118
  H        -1.6155767532       11.2355112615       30.6793515621
  C        -1.4776708602       14.1224534655       31.5440787713
  H         8.1185370729       13.0657610213       21.1840082531
  H         7.5706148183       14.7668375694       21.4398605735
  C         6.2490771376       13.5397796144       20.2574628981
  C         3.4246628648        7.4463234838       15.9485798409
  H         2.3138153207       11.1874747574       28.7750694114
  H         1.6163752552       10.9860978631       30.2333593325
  C         3.1061780793        9.5196831452       30.0766336586
  H        -2.7042958351       10.4704648731       26.3619450793
  H        -3.0028434789       11.1630856172       27.7724235499
  C        -4.1852871526        9.4666826228       27.4926382445
  C        -1.5341726347       15.5027110639       31.6780677430
  C        -1.8708325617       13.3573412001       32.7166001785
  H         5.7785818021       12.5452663333       20.3482672988
  H         5.3475449131       14.1702111844       20.2248021467
  C         6.8562027501       13.6510315784       18.9278528166
  H         3.0989909127        6.3776094838       15.8904107372
  C         3.7762462819        7.8832059427       14.7054311335
  H         3.6426320535        8.9469173258       29.3461523214
  H         2.8996902201        9.0598466273       30.9736428572
  C         4.1685170555       10.4033382433       30.6558570512
  H        -4.0968786398        8.6334685241       26.9112896763
  H        -4.3850949839        9.1175458897       28.5147329882
  C        -5.4411985304       10.2831466878       27.0267418330
  N        -1.4190203458       16.4969524541       30.6575883506
  C        -1.8255048117       16.0682323517       32.9148890716
  C        -2.1950452624       13.9154105546       33.9107631929
  H        -1.9214618811       12.3193235327       32.6924727972
  H         7.8016887622       14.3513495069       18.7758788925
  H         7.1960191623       12.7243915474       18.4329416119
  H         6.0793087426       13.9366314507       18.2188567812
  S         4.0972382319        9.5578988252       14.2363698670
  C         3.7670178987        7.0178745136       13.5481051438
  H         4.0829566836       11.4256188015       30.3795866737
  H         3.9710592014       10.4352165079       31.7017138761
  C         5.5915133779        9.9107510618       30.4833350047
  H        -5.0608701640       11.1015119745       26.4793874909
  H        -5.7981291137       10.7127160117       27.9248953502
  C        -6.4972870856        9.6657677097       26.1422441807
  S        -1.4736934911       17.9144811501       31.3589891786
  N        -1.8412004429       17.4283917492       32.8423299074
  C        -2.1695919698       15.3722783406       34.1408143992
  H        -2.4765548952       13.4000097032       34.8391500365
  C         4.4448241203        8.8842767083       12.5422442636
  N         4.1460326749        7.5562870277       12.3908544389
  O         3.7566746000        5.7430378521       13.6402169437
  H         6.3819602389       10.5725360284       30.9777161599
  H         5.9233471412        9.8853397761       29.4737580720
  C         5.7308175093        8.6602710760       31.3266833718
  H        -6.0872693650        9.0320376301       25.3869960045
  H        -6.9353864615        8.9792717872       26.9468260051
  C        -7.4090364842       10.6035027817       25.5307356159
  C        -2.6108048543       16.2017526896       35.2814672166
  S         4.7014993436        9.8122830208       11.0197018428
  C         4.1253097284        6.8233821497       11.0565150452
  H         6.4808422680        8.8821206512       32.1588175682
  H         4.8160806153        8.3636232077       31.9663183809
  C         6.1198383525        7.4909902951       30.4179306227
  H        -6.8211927965       10.9782909151       24.6834338153
  H        -7.5805761013       11.4694259089       26.1226573135
  C        -8.6610127378        9.9472243713       24.9664389682
  H        -2.6490550797       17.2066051534       35.0302084165
  C        -3.0268599204       15.8291523914       36.5315486275
  H         4.9778995482        6.9783754556       10.3072665606
  H         4.3236957564        5.7829106901       11.3016162213
  C         2.7193342617        6.9075526020       10.3403879438
  H         7.0832714781        7.5001602906       30.0464254471
  H         5.4102549687        7.3607691269       29.5758303614
  C         6.1764271049        6.2034930631       31.2330749958
  H        -9.2147189580       10.4455158193       24.1741370898
  H        -8.4360970844        8.8763409409       24.5589861958
  C        -9.6438105472        9.7702691143       26.2033104430
  S        -3.2206629882       14.2292594709       37.1096731164
  C        -3.2494227246       16.8778673148       37.5058056326
  H         1.9442409154        6.9538745862       11.1123741025
  H         2.7788521036        7.5931039255        9.4685904886
  H         2.6342005720        5.8640416211        9.9135736879
  H         5.2938210090        6.0676576571       31.7834371449
  H         6.9771515582        6.2162926150       31.9767650574
  H         6.4001013573        5.2846127869       30.6975772694
  H       -10.5818451658        9.4670291304       25.8383243322
  H        -9.7496950023       10.7238166842       26.7432230894
  H        -9.4124338863        9.0873410556       27.0228434125
  C        -3.8858239336       15.0398121809       38.6109955070
  N        -3.7008647561       16.3948313252       38.6391333874
  O        -3.1826471883       18.1030537166       37.2139297748
  S        -4.2074003675       14.2205410373       40.1613558590
  C        -3.9441653640       17.3586522724       39.7532558238
  H        -4.2579349518       18.2383966820       39.3584217197
  H        -4.7330076569       16.9572906369       40.3018281739
  C        -2.8259250709       17.3247818854       40.7401240939
  H        -2.5509455434       18.2672884929       41.2159424319
  H        -3.0001557901       16.7146417098       41.5576832211
  H        -1.8287786614       17.1749717749       40.1762520473
