352
i=
  H         3.2578634514        4.5970619900       11.6898078793
  C         2.9427915381        3.6403396400       12.0420579192
  H         2.0307790800        3.8565063673       12.5751521016
  C         2.7227558516        2.5708365116       10.8576611871
  C         4.0232631404        3.1356175362       13.0169611154
  C         3.6261567912        2.6713981474        9.6642951780
  H         1.6870804164        2.4410338708       10.5969351074
  H         2.9207626189        1.6221213520       11.4194120648
  H         4.9418022817        3.1761729366       12.4236354817
  H         3.7826941540        2.1529893583       13.4845448306
  H         4.1781021631        3.7555632930       13.8914974669
  C         4.3673946845        1.3872130036        9.4003951742
  H         3.0994856670        3.0308506188        8.7989380666
  H         4.2387009269        3.5650416307        9.8328169377
  C         5.3037112636        1.5128772335        8.1917910018
  H         3.6396031585        0.6011490952        9.1840021047
  H         4.9134430979        1.0440830108       10.2786700227
  C         6.5226788196        2.3776924377        8.5149544105
  H         4.6743861172        1.8316692325        7.3063352356
  H         5.6899916157        0.5502202643        7.9072420723
  C         7.8242676351        1.7677198024        9.1082568890
  H         6.6890823221        3.0151553364        7.6851520973
  H         6.1507225055        3.0535097356        9.2827771043
  C         9.0205975827        2.7941259680        9.3538642952
  H         8.2347622535        0.8587567077        8.6367351330
  H         7.4282879187        1.3882816878       10.1267241165
  C         8.6167172330        4.0872453937        9.9818110937
  C         9.5678321360        3.4499708930        8.0773591917
  C        10.0736815388        1.9871922153       10.1897322641
  C         8.9518702979        5.1998403879        9.1824787077
  C         7.9597787885        4.4754159510       11.1487420775
  C         9.4949978631        4.7946444531        7.9560586823
  C        10.0943558860        2.7515722827        6.9786377139
  H         9.5688643542        1.5505110898       11.1194819814
  H        10.2991153451        1.0903602197        9.6353701951
  C        11.3482587384        2.7859095195       10.4371146447
  S         8.5797650424        6.7146014741        9.8027708883
  C         7.9346581647        5.8872460135       11.1892305528
  H         7.6439912117        3.7037238583       11.7614832515
  C         9.9604760555        5.2951829539        6.7454355371
  H        10.2049764537        1.6697037971        7.1191422588
  C        10.5019934940        3.3064069498        5.7940939047
  H        11.1683287392        3.8271137194       10.7276568406
  H        11.8185847549        2.9663288340        9.4055987653
  C        12.3398270893        2.1241168719       11.4549585662
  C         7.4519008708        6.6359771880       12.4029116509
  C        10.4231922962        4.6546782104        5.6301352838
  H         9.9365750575        6.3456535024        6.6793483399
  C        10.9552118497        2.8589451496        4.5837691222
  H        13.2239517176        2.7495313442       11.4581399255
  H        12.7404931910        1.1864091787       11.1190893670
  C        11.8072584021        2.2119274756       12.9476268443
  C         7.6977445895        7.9901481995       12.6813384560
  C         6.9341204225        5.8447127627       13.5824437783
  C        10.6937429765        5.3229563809        4.3229141282
  C        11.0913328820        3.9396465013        3.7145653731
  S        11.2184364445        1.2584209491        3.9022861718
  H        11.1699450820        3.0814724693       13.1552900642
  H        11.1010013885        1.4705249200       13.2195475547
  C        12.9349607228        2.4283124587       14.0197666336
  N         8.1749139941        8.9151129038       11.7432945855
  C         7.4437612174        8.5831214832       13.8763419734
  C         6.7266161488        6.3961214770       14.8293031838
  H         6.5982002319        4.8222812539       13.4500794062
  C        11.9286863022        6.2690874909        4.3167763614
  C         9.5104108155        5.8880579651        3.5125909193
  C        11.4839593962        3.4189403374        2.4791269857
  C        11.5861498976        2.0420294074        2.4071547783
  H        13.5037469349        3.3514613030       13.9301131030
  H        13.6031954610        1.5611232339       13.9767668679
  C        12.2452373215        2.5243465948       15.3783691547
  S         8.1151811953       10.4182889561       12.4070847727
  N         7.6069526523        9.9762573125       13.8374023243
  C         6.9225189477        7.8897579275       14.9825395434
  H         6.2469888006        5.7476537838       15.5720401307
  H        11.7077517984        7.1735485392        4.8688384978
  H        12.2677419876        6.6508335853        3.3106198777
  C        13.2502583300        5.5836448462        4.9509604000
  H         9.4959322276        6.9640164760        3.5443013239
  H         9.7703198390        5.6430239961        2.4964141395
  C         8.2278749854        5.0799402719        3.6817561628
  H        11.7080177558        4.1046762289        1.7539613805
  C        11.8720450237        1.2851138411        1.0987058023
  H        11.3324528396        3.2128860209       15.3567850639
  H        11.8239779016        1.5196679113       15.6794263895
  C        13.2802009218        2.7265013625       16.5451289809
  C         6.6028737200        8.5070072037       16.2565740150
  H        12.9782921214        4.9717647597        5.7875630329
  H        13.6757047374        4.8599331711        4.2639284909
  C        14.2565576207        6.5764251763        5.3695145090
  H         8.0185606996        4.9378446002        4.7634994480
  H         8.3582955090        4.1393754386        3.1582023015
  C         6.9622111169        5.8431010599        3.1287440676
  C        11.9530924370       -0.1184733116        0.9525765314
  C        12.0035693600        2.0571155361       -0.1809927370
  H        14.0705538881        3.4728675581       16.3186735438
  H        13.8418451610        1.8267190161       16.7636694838
  C        12.5688650698        3.1228542778       17.8403779779
  H         6.6397432974        9.6106459287       16.1279711865
  C         6.3163590757        8.0638881012       17.4997484047
  H        13.7629487683        7.3400260331        5.9046199412
  H        14.7514193271        6.8209027565        4.4171969073
  C        15.2938626038        6.0116079785        6.3298839892
  H         6.1017157346        5.3737795683        3.5075942495
  H         6.9718079990        6.8768030995        3.5260134476
  C         6.8388200564        5.8377223464        1.6036953681
  N        11.7324524145       -1.0306650015        2.0172170444
  C        12.2442497394       -0.6985194959       -0.2726514118
  C        12.3034810807        1.3957074659       -1.3938514811
  H        12.0339030369        3.1583170782       -0.1965148452
  H        13.3549875983        3.2951572054       18.5557208069
  H        11.8202874185        2.3952313299       18.1351315126
  H        11.9605965224        3.9910794605       17.5785341883
  S         5.9211187681        6.4283062909       18.0073826772
  C         6.1955055707        9.1557043045       18.5524608025
  H        15.7071186539        6.8970567328        6.7899063298
  H        14.9542678703        5.3519969394        7.0359456406
  C        16.3285438937        5.2557662868        5.4911867224
  H         7.0946934367        4.8024133385        1.2312068267
  H         7.5397396694        6.6030207541        1.2130098657
  C         5.4407371637        6.1661468514        1.0728246551
  S        11.8830035056       -2.5075466821        1.3681580918
  N        12.2984030189       -2.0946721855       -0.1163172296
  C        12.4409521860       -0.0847434576       -1.4876174303
  H        12.4737086585        2.0450073708       -2.2598768457
  C         5.6003085744        7.1258874950       19.6114349092
  N         5.8870710145        8.4888535283       19.7278182796
  O         6.3748769110       10.3551793290       18.3743725227
  H        15.8033365923        4.5638829133        4.7904375640
  H        16.8186327221        5.9521959698        4.7840235084
  C        17.3763057176        4.5889239840        6.4611625735
  H         5.3312288599        5.5432238372        0.1210605256
  H         4.7248019525        5.7027942808        1.7132098781
  C         5.1574444022        7.6244928533        0.7233703547
  C        12.6809840897       -0.8870654017       -2.6019611927
  S         5.1770139265        6.2642319210       21.1721220530
  C         5.7832336680        9.1774099731       21.0448403373
  H        16.9294856352        3.8430157699        7.1131618440
  H        18.0884485690        4.0964980277        5.8871856578
  C        18.1352984645        5.5916316814        7.3030460275
  H         4.7768428990        7.7694545957       -0.2812501024
  H         6.0710134962        8.2120102624        0.7700693439
  C         4.1660458583        8.3014086964        1.6701819181
  H        12.5005042347       -1.9417703366       -2.3954197274
  C        13.0962678822       -0.6301573014       -3.8871003747
  H         4.9328944704        8.7879738764       21.6675535727
  H         5.5318149469       10.2701301878       20.9259298587
  C         7.1519454211        9.2338714971       21.7295593392
  H        18.4712644718        5.1093154631        8.2160596295
  H        17.5181084167        6.4646528330        7.5583336452
  C        19.3725847493        6.0811418079        6.5342334389
  H         4.2326692280        9.3572243325        1.4576348787
  H         3.1942542302        7.8088526634        1.4409585250
  C         4.5829158646        8.1144356438        3.1812733278
  S        13.5422430920        0.8449090852       -4.6036083891
  C        13.3984650265       -1.8436141943       -4.7346207076
  H         8.0431834701        9.2228515860       21.0784198918
  H         7.1849515427        8.4984657264       22.4925475947
  H         7.2299207590       10.1233268491       22.3238838967
  H        19.0630325879        7.0066668449        5.9638872178
  H        20.2653149721        6.2777436687        7.0616395662
  H        19.6235659905        5.3548400184        5.7871132334
  H         4.3668803776        7.0904735583        3.3729648067
  H         5.5942467045        8.3781270947        3.5291494317
  H         3.8709958365        8.7260801128        3.7740506155
  C        13.9488258105       -0.0063372470       -6.0646806662
  N        13.8533158183       -1.3882582609       -5.9137306759
  O        13.1066929254       -3.0327201309       -4.4954382249
  S        14.6006041469        0.6947243894       -7.5091191204
  C        13.9462447039       -2.3547972338       -6.9947282726
  H        14.1205405139       -3.4006487668       -6.7939587207
  H        14.8852013610       -2.0241670557       -7.5044980334
  C        12.7963251276       -2.2966854014       -7.9819342237
  H        12.8147899138       -1.2830728993       -8.5258933111
  H        11.8336787823       -2.3562753473       -7.4651823687
  H        12.6901716962       -3.0604176600       -8.7311217811
  H        -1.2331546973       13.4665554325       16.5194725462
  C        -2.0620050373       14.1302304842       16.3237538168
  H        -1.6483553590       14.7536759156       15.6128924281
  C        -2.3967506171       14.9593502137       17.5686049297
  C        -3.2066940392       13.4503130140       15.6237704891
  C        -3.1299258134       14.1437041845       18.6811074982
  H        -1.5104077266       15.4634187087       17.9951770399
  H        -3.0069163548       15.7507884658       17.2073154738
  H        -2.8807481088       13.2329948864       14.5806573359
  H        -3.5136945392       12.5029557130       16.0781491977
  H        -4.0691389752       14.0833017427       15.6530964112
  C        -2.0315866518       13.8941377627       19.7164686136
  H        -3.6235521197       13.2261883794       18.3008742600
  H        -3.8833854956       14.7240415994       19.0917141826
  C        -2.6794050295       13.7697173572       21.0794353200
  H        -1.6473172938       12.9302579899       19.5538134191
  H        -1.1895354075       14.5631506960       19.7101786948
  C        -1.7545177545       13.0895809781       22.0929514630
  H        -3.6669039409       13.2655136876       21.0725939631
  H        -2.8848460148       14.7017825939       21.5267335203
  C        -0.6120291245       13.9354229451       22.6526304490
  H        -2.4390703176       12.9054915068       22.9016840924
  H        -1.4404084445       12.0810547690       21.6968468269
  C         0.5614476466       13.2868646954       23.3932615856
  H        -0.1848678499       14.3812331018       21.7392592910
  H        -0.9683942145       14.6937636714       23.2479068753
  C         0.9359838630       12.0148667801       22.6863519588
  C         0.1940451742       12.5601175383       24.6382641962
  C         1.8299469811       14.1557210502       23.5078294714
  C         0.7289333165       10.8814513267       23.4591264480
  C         1.4045110325       11.7174970393       21.4033468065
  C         0.1810753015       11.2289056627       24.6102874929
  C        -0.2507284278       13.1505151077       25.8884990034
  H         2.0946654629       14.6094478002       22.5860431089
  H         1.5209093796       14.9194336981       24.2125884037
  C         3.1661178562       13.4834243068       23.9721970581
  S         1.1929395200        9.4287825759       22.6994813197
  C         1.5738738555       10.3688595318       21.2224447999
  H         1.5178630161       12.4936962971       20.7229290229
  C        -0.1578723663       10.4809665808       25.7063638910
  H        -0.3408280615       14.2453787304       26.0168828304
  C        -0.5518067640       12.3914307446       26.9854079756
  H         3.4410301175       12.6668319370       23.3537375443
  H         3.0554421186       12.8665168870       24.8463246857
  C         4.3762783660       14.4565291076       24.0937324604
  C         2.0936970728        9.6787567606       20.0512650430
  C        -0.5767141827       11.0379836620       26.9534554573
  H         0.1076302075        9.4418105068       25.6791898109
  C        -1.0468806027       12.7245971969       28.2113464840
  H         5.1743761792       13.9866447851       24.6144016730
  H         4.1459733718       15.3540032302       24.6270994486
  C         5.0234346955       14.9876904679       22.8298984540
  C         2.1126418936        8.2594312760       19.7929697021
  C         2.6217235475       10.5291780778       18.9838623361
  C        -0.8914799882       10.2658742366       28.2634627375
  C        -1.1356912025       11.6061206635       29.0127330553
  S        -1.2785890430       14.2117972617       29.0754404116
  H         5.6814785799       15.8328426472       23.0462305459
  H         4.2242246182       15.3084545473       22.1247301896
  C         5.8787920294       13.9102055675       22.1533317265
  N         1.8167268028        7.2653813781       20.7928963745
  C         2.4290162013        7.7587834563       18.5675547600
  C         3.0997383859        9.9628694891       17.8361913841
  H         2.8182738719       11.5690131448       19.0178735486
  C         0.3193218619        9.4654453387       28.8084286844
  C        -2.2059910165        9.4347331357       28.1271788457
  C        -1.5693284292       11.9344009550       30.2795451257
  C        -1.6338036296       13.2628109969       30.4287752724
  H         6.9209682338       14.1825919283       22.2742037365
  H         5.7999215592       12.9343499531       22.5747802178
  C         5.7410906033       13.8640308205       20.6086667140
  S         1.7153170912        5.8582013606       19.9968676146
  N         2.3063406193        6.3212421883       18.5460448421
  C         2.8969051127        8.5187316418       17.5032789511
  H         3.5197489896       10.6687386652       17.1078159950
  H         0.5348389316        8.7694705358       28.0212927265
  H         0.0408344746        8.8079198890       29.5525494246
  C         1.6233898799       10.2173138360       29.0441242403
  H        -1.9962236954        8.5624585798       27.4403915841
  H        -2.5274250305        9.0620227939       29.1333209798
  C        -3.4487002315       10.3036649188       27.6253059173
  H        -1.7432819087       11.2773512151       31.0382983926
  C        -1.8948268880       13.8859867981       31.7952103006
  H         5.6236743951       14.8974421002       20.3229292098
  H         4.8462397159       13.3509103509       20.2892159197
  C         6.9634403303       13.2841080906       19.9053583964
  C         3.0786439084        7.9627511257       16.2105678277
  H         1.9558047363       10.6321512601       28.1147651740
  H         1.3933814835       11.0641198316       29.7119098564
  C         2.7436541179        9.3436757263       29.5560640398
  H        -3.3608431063       10.7902834304       26.6919109486
  H        -3.7377393034       10.9983301032       28.4277332543
  C        -4.6150206538        9.4041840522       27.3752335331
  C        -1.9734389982       15.3124550746       32.0495608340
  C        -2.1841070165       13.0422419434       32.9721585572
  H         7.8871698139       13.8416756620       20.2486874744
  H         7.1365207653       12.2425840379       20.2225349001
  C         6.6962242706       13.3553092812       18.3978794794
  H         2.8736084112        6.9287270055       16.2028736346
  C         3.4376682761        8.4251051677       14.9929150774
  H         3.0247202621        8.7605639906       28.7007762763
  H         2.3970776494        8.5989864828       30.2900589841
  C         4.0118359878       10.1209216271       29.9132048248
  H        -4.3683883738        8.8169736981       26.5453849462
  H        -4.7064093477        8.6448018521       28.1393683045
  C        -6.0149201602       10.0930510783       27.0475960327
  N        -1.8512891563       16.2925735141       31.0468188738
  C        -2.2017144560       15.9037738837       33.2982728081
  C        -2.4166621957       13.6468009172       34.1979227045
  H        -2.1369935463       12.0182131576       32.9039662216
  H         6.5311500016       14.3321146950       18.0235311241
  H         7.5882046654       12.8884396502       17.8101244425
  H         5.7755390426       12.7790346102       18.2543650273
  S         3.8799417489        9.9862615333       14.6173861906
  C         3.4827166112        7.4391155396       13.8713321449
  H         4.2267291214       10.9677632696       29.2448078121
  H         4.0229568248       10.5021410353       30.9237532539
  C         5.1778031935        9.1778088263       29.6319199397
  H        -6.1635607910       10.9764226883       27.6888086038
  H        -6.6772554619        9.2213838937       27.1173815603
  C        -6.1279388791       10.5534513051       25.5993841769
  S        -1.9620877579       17.7613026885       31.7016561286
  N        -2.0875816167       17.2601759728       33.2339960058
  C        -2.6218445435       15.1263466571       34.3429351629
  H        -2.6989017882       13.0007689945       35.0431748635
  C         4.0511149164        9.4224913693       12.9380141487
  N         3.9023331376        8.1008596886       12.7814949489
  O         3.2104132744        6.2192166189       14.0050908696
  H         6.0882576538        9.7099786117       30.0022460861
  H         5.3155314841        9.0178589298       28.5871941553
  C         5.0975337445        7.9405278201       30.4902540729
  H        -5.2365760710       11.0874642244       25.2676984011
  H        -6.1231354530        9.7595396381       24.9097971044
  C        -7.2651674971       11.5263826342       25.3730091951
  C        -2.9699172683       15.8250513540       35.6044365278
  S         4.7794570276       10.3931646220       11.6559544566
  C         4.0747873482        7.4728358998       11.5450702125
  H         4.8964312793        8.2429220315       31.5492998094
  H         4.3821011022        7.2704178745       30.1071795966
  C         6.4526093336        7.1247720705       30.2751106479
  H        -7.1109263333       11.8909860143       24.3220594464
  H        -7.1857518765       12.4795984592       25.9788850061
  C        -8.6432008054       10.7902845040       25.4356470921
  H        -2.6577091220       16.8621790766       35.6289982404
  C        -3.4272705537       15.4502380822       36.7852090412
  H         4.8284402987        7.9193106231       10.8906965590
  H         4.4033324842        6.4410700587       11.6843557636
  C         2.7331036167        7.3243608823       10.8373754842
  H         7.3365213368        7.6576395103       30.4621003456
  H         6.5313253576        6.7524230939       29.2789379716
  C         6.5913900748        5.9190653984       31.2383262288
  H        -9.3457488221       11.2651133767       24.8013004262
  H        -8.4899214895        9.7029750959       25.2602267305
  C        -9.3839944908       10.8774232638       26.7312221701
  S        -4.0322569684       13.8924309195       37.1192600167
  C        -3.5464109108       16.4462802051       37.8365404552
  H         2.3681042335        8.3730412084       10.5467655393
  H         2.4826459417        6.7855661227        9.9328710778
  H         1.9863864690        6.8865974875       11.5911757481
  H         6.4397846817        6.2043491653       32.2882026516
  H         7.6022221576        5.5095498485       31.2142387982
  H         5.8941237388        5.0567176290       30.9391355719
  H        -9.5103061042       11.9533947495       26.8004742521
  H        -8.8646346458       10.5867678430       27.6403684143
  H       -10.2868942611       10.3049705718       26.5701851039
  C        -4.5323610641       14.5622657099       38.6386156635
  N        -4.3340429732       15.8855033384       38.7924035685
  O        -3.2368472268       17.6791602101       37.7302698061
  S        -5.4146008330       13.5949938775       39.7763878016
  C        -4.5509804214       16.6020894889       40.0459784147
  H        -4.6795532233       17.5999172642       39.8273224827
  H        -5.3991454533       16.2103522842       40.5889270209
  C        -3.2868634136       16.5101956428       40.9206239560
  H        -2.4186343831       16.8129637633       40.3952854325
  H        -3.2210501171       17.0291217577       41.8722205333
  H        -3.1516762508       15.4477966408       41.0461140912
