352
i=
  H         4.8218689392        0.8026221360       12.7196871959
  C         4.2122157484        1.6935144784       12.9810101074
  H         4.8771447864        2.4689381323       13.3372437113
  C         3.4209773225        2.2450293763       11.7511476722
  C         3.2321721499        1.3173686297       14.0435934259
  C         4.3213429793        2.4673637907       10.6022793081
  H         2.9838273049        3.2660421514       11.9652599813
  H         2.6323360679        1.5827710842       11.4179874638
  H         3.0531406207        2.2218255691       14.6766711934
  H         3.6657991286        0.6781547815       14.8282808573
  H         2.3322274643        0.7629793824       13.8219951120
  C         4.9120120738        1.1214155441       10.1432379488
  H         3.6430683881        2.7809945621        9.7766953408
  H         4.8580643082        3.3730018656       10.7269174443
  C         5.5433121372        1.1844315297        8.7253547650
  H         4.2857550456        0.2815033750       10.3540315279
  H         5.7949258821        0.9867894180       10.7857433237
  C         6.7360946646        2.1605888015        8.6928613102
  H         4.7704538194        1.4951886205        7.9841110184
  H         5.8182265702        0.1532723241        8.2622774222
  C         8.0978791690        1.5547606389        8.9111196155
  H         6.6643756869        2.7687808132        7.7194665210
  H         6.4899812990        2.8789899703        9.4445491265
  C         9.2554299701        2.5715531910        9.2360966311
  H         8.3327749521        0.9047023707        8.0789931355
  H         7.8403625197        0.9016714156        9.6826362332
  C         8.7722094873        3.8579503496        9.9215565731
  C         9.6185055594        3.3584791347        7.9598991830
  C        10.4286269628        1.8821737053       10.0033325121
  C         9.0224900575        4.9964782247        9.1504069877
  C         8.2432915551        4.2618487974       11.1895969883
  C         9.5774270490        4.6665084988        7.9286299211
  C        10.1251263220        2.8384768942        6.8084401196
  H        10.0092896404        1.3240658583       10.8109383570
  H        10.8028315970        1.1187370583        9.3187199994
  C        11.6483133037        2.7497733604       10.3450733914
  S         8.5452237626        6.4937131858        9.8445566469
  C         8.0782294537        5.6441926979       11.2859528503
  H         8.0368125928        3.4649617145       11.9644068543
  C        10.0293794277        5.3590731914        6.8184715001
  H        10.1893569671        1.8060040366        6.7827909360
  C        10.5211455774        3.4641660214        5.6613731283
  H        11.3376492311        3.7328097479       10.6252032789
  H        12.1011171071        2.9161109946        9.4456516038
  C        12.6030950451        2.2344971744       11.4296618543
  C         7.6452578118        6.3214805150       12.5479170758
  C        10.4287432515        4.7807740899        5.5840664521
  H        10.0776171707        6.3820127562        6.9235302960
  C        10.8608674643        3.0679869986        4.3634317779
  H        13.6169696876        2.4989669003       11.3321197468
  H        12.6534689562        1.1228892851       11.2490723776
  C        12.0459669081        2.6026283364       12.7501604421
  C         7.6763858473        7.6784130652       12.7741091184
  C         6.8741458818        5.5334714060       13.5716565843
  C        10.8721228894        5.4548090730        4.3128794837
  C        11.0292600194        4.1669009755        3.5508438439
  S        11.1634004103        1.5473898355        3.5075639160
  H        12.5833109356        3.5163673816       13.0559973677
  H        11.0396705250        2.9924865208       12.5031599344
  C        12.0463846433        1.4407545001       13.6347351601
  N         8.3062732492        8.5650780075       11.9001816425
  C         7.3825588134        8.2296624973       13.9597660905
  C         6.4661466990        6.0751221615       14.7949239405
  H         6.7181803004        4.4787042818       13.3971914436
  C        12.1730494635        6.1872708994        4.5448849938
  C         9.7238755174        6.2612228226        3.6957126845
  C        11.2437580265        3.7840678508        2.1640636406
  C        11.4262874471        2.4271934720        2.0097027750
  H        13.0614371302        0.9427192697       13.5738793180
  H        11.1534928622        0.8340159849       13.4708327016
  C        11.8225374566        1.8299777391       15.1566205789
  S         8.0629074541       10.0795905140       12.4742973448
  N         7.6308368921        9.6131432591       14.0052180022
  C         6.8606384081        7.5233678644       15.1096829028
  H         5.8836145403        5.5346866097       15.5514158389
  H        11.9008942777        6.9452194510        5.2292884458
  H        12.5554267485        6.7195476223        3.6852310985
  C        13.3119527062        5.3480313857        5.1204124050
  H         9.6200022253        7.1608264240        4.3282656762
  H        10.0879700807        6.4632017888        2.7565849028
  C         8.3198389389        5.6951017110        3.6400603224
  H        11.4596452810        4.5321689803        1.3980756607
  C        11.8982854794        1.7198971429        0.7758528495
  H        11.3017195712        2.8274350093       15.1798662614
  H        11.0457507246        1.2258912768       15.6668279959
  C        13.0784106190        1.9470815183       15.9247670813
  C         6.6981876798        8.1868820813       16.3698509326
  H        13.0126186460        4.8476021383        5.9979852581
  H        13.4994749498        4.5325040127        4.3098074329
  C        14.5637994966        6.1979349096        5.3115095973
  H         7.8369162990        5.6328766227        4.6032343013
  H         8.2388607446        4.7652970661        3.0797397999
  C         7.2973570048        6.5295321427        2.8632303755
  C        12.0919858207        0.2731623736        0.6106358458
  C        12.2441650917        2.4437378938       -0.4210607868
  H        13.6743597118        2.7443805799       15.3710205715
  H        13.7260023713        0.9991442872       15.8941498902
  C        12.9295595996        2.3853314383       17.4071027115
  H         6.7491011930        9.2241618646       16.3214222410
  C         6.4667219027        7.7141622173       17.6296258857
  H        14.4717902850        7.0261884840        5.9783617473
  H        14.7528187456        6.7624926955        4.3229839931
  C        15.8755915170        5.4011976827        5.5710266005
  H         7.2259793083        7.5332380369        3.1766913664
  H         7.5992171778        6.6621774821        1.8451360661
  C         5.9321416608        5.8303168483        3.0320191508
  N        11.7270099723       -0.6236927521        1.5975810029
  C        12.5553736737       -0.3519721642       -0.5302534831
  C        12.6020486878        1.8349669503       -1.6361042845
  H        12.0421848103        3.4993154836       -0.3708154357
  H        12.2482625628        3.1825607548       17.5488950499
  H        13.9357410067        2.6916968211       17.7345873336
  H        12.6119673671        1.5536115108       17.9515820662
  S         6.0746815891        6.0453494627       18.1212066043
  C         6.3774897824        8.6237243540       18.8331570915
  H        15.6956734206        4.3240105778        5.6393530183
  H        16.6058268003        5.7046051155        4.8163766602
  C        16.3915540445        5.8471881165        6.9884043212
  H         5.5166468019        6.1749049525        3.9489253963
  H         5.9576608341        4.8026562501        2.9736839965
  C         5.0140055849        6.2352214813        1.9562021913
  S        12.0183327477       -2.1567342815        1.0612198914
  N        12.5560081637       -1.7488991013       -0.3978849953
  C        12.7907159598        0.3400447298       -1.7291353608
  H        12.6124278564        2.3957044421       -2.5332034845
  C         5.9734081493        6.6131869570       19.7647704487
  N         6.0533701723        7.9247958989       19.9162137352
  O         6.5856034338        9.7994354594       18.7693482006
  H        16.4340741450        6.9135620259        7.0401967217
  H        15.6387844835        5.4412357354        7.6664231248
  C        17.6951085609        5.1873244956        7.5275671984
  H         5.5149687261        6.4173495713        0.9845018812
  H         4.5170183621        5.2662467466        1.7876113920
  C         4.0796651528        7.4264851561        2.4604768902
  C        13.2125035200       -0.3798546541       -2.8782321737
  S         5.5722737428        5.6813487787       21.1942893609
  C         6.0282101049        8.6129307360       21.2547282529
  H        17.6250357875        5.0938081390        8.6187371986
  H        17.7364990886        4.2130577319        7.1700842059
  C        19.0437957525        5.8871261615        7.1841234387
  H         4.3693961554        7.8015879486        3.4373651102
  H         3.0119872637        7.1395707462        2.5575217056
  C         4.0142217423        8.4880173498        1.3859729774
  H        12.8876225657       -1.4065467812       -2.8350407329
  C        13.6939225207        0.0153453348       -4.1339727525
  H         5.3989441256        8.3459162337       22.1547639667
  H         5.5269201583        9.6066137098       21.1859706234
  C         7.5259431518        8.9222802546       21.7159080545
  H        19.8303512760        5.6669289220        7.9638612203
  H        19.0067869348        6.9331347819        7.1643042238
  C        19.6146935243        5.3906975454        5.8655529893
  H         3.9577788169        7.9938174709        0.3485801280
  H         3.0143403283        8.9389545576        1.4701864960
  C         5.0591922578        9.6163072813        1.4658293895
  S        14.4383458887        1.6040948427       -4.5225708590
  C        13.7077636704       -0.8833396289       -5.2318484247
  H         8.1687494391        8.0426763117       21.9457183296
  H         7.5683231980        9.5982055007       22.5664117693
  H         8.1406017805        9.4460423581       20.9685383693
  H        20.6446964856        5.6739533333        5.7319070416
  H        19.5718511788        4.3456683599        5.8694234067
  H        19.0066387975        5.6804254880        5.0144080896
  H         5.8229202206        9.4397933703        0.7299506977
  H         4.6291617970       10.5865324828        1.3778053735
  H         5.6482828512        9.5109817087        2.3914201818
  C        14.5929431852        1.0338615207       -6.1327250725
  N        14.2940012248       -0.2863668432       -6.2901327844
  O        13.4873034347       -2.0977266347       -5.1511061330
  S        15.2454196292        1.9718986704       -7.4699074186
  C        14.4178406395       -0.9476241184       -7.5806826743
  H        14.7139415206       -2.0548525068       -7.3375526046
  H        15.1308210643       -0.4867052486       -8.2654707472
  C        12.9804727674       -1.0872385997       -8.2530460365
  H        13.1040674379       -0.9610385441       -9.3648663520
  H        12.2549269215       -0.4043861642       -7.8034873906
  H        12.5406021423       -2.1240694688       -8.0965848835
  H        -2.5349004945       15.0300816587       15.9115999078
  C        -2.8873533660       13.9897713330       16.2186359303
  H        -3.8927277578       14.1768362250       16.4812588975
  C        -2.0684199394       13.4088692328       17.3386388015
  C        -2.8420995778       13.1705948157       14.9387262136
  C        -2.6970585886       13.3423972590       18.7283560880
  H        -1.8508538138       12.4339478249       17.0558075579
  H        -1.1912579687       14.0626985349       17.2981105525
  H        -2.9727505349       13.9345378842       14.2020795844
  H        -1.9999773999       12.5774208568       14.8604944593
  H        -3.7364001066       12.5142809925       15.0302270382
  C        -1.5684793694       12.9586895188       19.6391351870
  H        -3.5014401750       12.6270029826       18.8134234035
  H        -3.1175003917       14.3022585689       19.0056915231
  C        -1.9973306989       13.1551843561       21.1099547134
  H        -1.1083851242       12.0130957444       19.4735072359
  H        -0.8331426463       13.7538455897       19.3793633979
  C        -1.0033862584       12.4962982313       22.0204019519
  H        -2.9793741991       12.6537512695       21.2386154294
  H        -2.1112847962       14.2006572207       21.3875393427
  C         0.2491994822       13.3248992731       22.2902782610
  H        -1.4814172583       12.0560116237       22.9164909611
  H        -0.6668751038       11.5141483430       21.5274441131
  C         1.3324983103       12.7378339639       23.1914380600
  H         0.6399692540       13.4894710701       21.3063838890
  H        -0.0260481177       14.2689745093       22.7043209176
  C         1.6978710285       11.3354434798       22.5398473705
  C         0.8988019322       12.0521295378       24.4193940401
  C         2.5997799071       13.6746076624       23.3861134753
  C         1.4290175160       10.2367014144       23.2932018252
  C         2.1702376628       10.9485276710       21.2093548434
  C         0.8981147004       10.6964243864       24.5171301115
  C         0.4315233132       12.5954904293       25.6250470257
  H         2.8615616031       14.1457237792       22.4051797042
  H         2.4666556389       14.4242302495       24.1612544555
  C         3.8887951824       12.9417757699       23.7763799916
  S         1.7175583276        8.7321145363       22.5455216956
  C         2.1225882553        9.5938025247       21.0935396483
  H         2.4839772891       11.7195704082       20.4838665030
  C         0.4691922275       10.1044873557       25.6465263636
  H         0.4499569842       13.6322571693       25.7324269893
  C         0.0322212222       11.9999243669       26.8154394046
  H         4.0854382333       12.1472798404       23.0245870943
  H         3.7995909204       12.4768654338       24.7964961093
  C         5.1441229628       13.8507550674       23.6372061827
  C         2.6208593153        8.8595111326       19.8598249652
  C         0.0713777760       10.6704416861       26.8630485176
  H         0.2970979817        9.0801692968       25.4878806307
  C        -0.4841434617       12.3383302016       28.0735498225
  H         6.0133019836       13.4244794382       24.1927756827
  H         4.9930989831       14.8634196396       23.9902634441
  C         5.5930505286       14.1372441787       22.1906586633
  C         2.4077585782        7.4693768859       19.5483674701
  C         3.2009569559        9.6828359442       18.7348703674
  C        -0.5054993225        9.8717662728       28.0382354410
  C        -0.7894408337       11.1788022738       28.8096945847
  S        -0.8307481898       13.7959118719       28.8231287221
  H         5.7819591925       15.1775976510       22.1092069589
  H         4.7939701075       13.7352439605       21.6110767852
  C         6.8560947321       13.2912247038       21.8553847773
  N         2.0774451675        6.4780119945       20.4948299347
  C         2.7225290410        6.9038276594       18.3131903586
  C         3.4932505488        9.0715625907       17.4914529778
  H         3.2859313530       10.7342637173       18.9238133415
  C         0.5835189332        9.0727708466       28.8109912858
  C        -1.7163055512        9.0414354041       27.7950106329
  C        -1.1876680823       11.5551042933       30.0634111566
  C        -1.2795447422       12.9310453422       30.2219502071
  H         7.6407278510       14.0231115941       21.7193200498
  H         6.9613812604       12.4472160775       22.6187604595
  C         6.6010517556       12.5105775031       20.5427727084
  S         2.1765758581        5.0486881071       19.7830879930
  N         2.5840913781        5.4932817758       18.2391271338
  C         3.1824134441        7.6716549025       17.1929604334
  H         3.9917902757        9.6537666179       16.7737300068
  H         0.9626774950        8.4421478594       28.0169720258
  H         0.1450709393        8.2768106018       29.4414632543
  C         1.6652972964        9.8733564526       29.5286711049
  H        -1.4905374875        8.5106784509       26.8268878594
  H        -1.8912095572        8.3875960170       28.6686190593
  C        -2.9641344650        9.9066573619       27.5631785220
  H        -1.3944490718       10.7202437021       30.7483291806
  C        -1.7302933720       13.5523173877       31.4940605106
  H         5.7992875877       11.8572547569       20.7992853328
  H         7.5741807305       12.0023542266       20.3389952711
  C         6.1598853368       13.4775636114       19.3614740896
  C         3.3321478093        7.0505534305       15.9439580919
  H         2.1637806489       10.4803455076       28.7411683506
  H         1.3510472308       10.4916198989       30.3278227597
  C         2.7613581167        8.8553460634       29.8238568956
  H        -2.6198243241       10.7274487448       26.8595245531
  H        -3.3452534662       10.4163187182       28.5014519517
  C        -4.0714137425        9.1221778254       26.8277168783
  C        -1.7171355336       14.9303064865       31.8135508989
  C        -2.1815964855       12.7081850167       32.6138567160
  H         5.1683679487       13.4796164502       19.2115707402
  H         6.5526361157       14.4708422897       19.5965642347
  C         6.7772142887       13.1427354125       18.0475152508
  H         2.8804915638        6.0649192623       15.9096352984
  C         3.5075359583        7.4808228622       14.6885104303
  H         3.1743876533        8.4740042476       28.9187633805
  H         2.3523299460        8.0368534646       30.4817492148
  C         3.8141227356        9.5632858291       30.6905143166
  H        -3.6126369565        8.6670987692       25.9503606327
  H        -4.3942267658        8.4516982840       27.5347450452
  C        -5.3365765076        9.9662979664       26.5349324785
  N        -1.4332323686       15.9206580717       30.9189910805
  C        -2.0263435899       15.5132084635       32.9822673907
  C        -2.3885084474       13.2202954671       33.8558662632
  H        -2.4613261924       11.7212773151       32.4213133376
  H         6.6838819613       12.0771983390       17.8491884602
  H         6.1341308138       13.5599418243       17.2493970127
  H         7.8151319997       13.4867347064       17.9041777865
  S         4.0847815862        9.0666455123       14.2478487719
  C         3.4809886332        6.4534753727       13.6563226651
  H         4.0124460836       10.6777602685       30.4033478212
  H         3.5141187970        9.5607325357       31.7449784612
  C         5.1834634872        8.8274315988       30.5642064922
  H        -5.0450824768       10.8348875957       25.9214891865
  H        -5.6892890770       10.3543417740       27.4861701582
  C        -6.4322782828        9.3010302791       25.7970591238
  S        -1.3274194268       17.3999880483       31.5531618971
  N        -1.9547528862       16.8823380442       32.9830519839
  C        -2.3652619684       14.7098621866       34.0957342528
  H        -2.6199790263       12.5999768671       34.6402979424
  C         4.1464583982        8.3807271452       12.6395623441
  N         3.8918063825        7.0340782808       12.5343191522
  O         3.3825759672        5.2219609683       13.8833965464
  H         5.9102534181        9.4855401069       31.0024744957
  H         5.2797201910        8.6151935292       29.4455553381
  C         5.2015175086        7.5189434126       31.4173462553
  H        -5.8158781794        8.7881113090       25.0543246567
  H        -6.8804811163        8.5164536852       26.3767435165
  C        -7.3826157898       10.1979600358       25.1318912068
  C        -2.6665997621       15.3199712032       35.4040135228
  S         4.6737190887        9.2673007012       11.2677139066
  C         3.8434143497        6.3182302929       11.2777638524
  H         5.5821214244        7.7857898757       32.3326962299
  H         4.2391401043        7.1086342904       31.7770001386
  C         6.1237451066        6.5060758050       30.6818104849
  H        -6.8375729837       10.5438623893       24.2463554207
  H        -7.6193588432       11.0442455603       25.7696688748
  C        -8.6372483028        9.4804543597       24.7537288539
  H        -2.6213931338       16.4044532987       35.4444981949
  C        -3.3348372473       14.8188073509       36.5168892652
  H         4.7583652354        6.3997692630       10.7522936028
  H         3.8669133418        5.2400523511       11.4336113494
  C         2.6794108134        6.7264929579       10.3638199269
  H         7.0323126434        6.9853991933       30.3672989232
  H         5.7242322942        6.2575300366       29.6931658816
  C         6.4086568417        5.2405703411       31.4470122247
  H        -8.9617183868        9.8227839002       23.7892039074
  H        -8.3894394422        8.4954668054       24.5977226389
  C        -9.7564649506        9.5085907655       25.8152414748
  S        -3.7836838139       13.2203717510       36.7992992438
  C        -3.5958753720       15.7880093723       37.6958496077
  H         2.1839418952        5.8668776156        9.8789959362
  H         1.9275924406        7.2789038817       10.8502303711
  H         3.0482253377        7.3362158245        9.5418034515
  H         6.5483403672        5.4582410585       32.4865069587
  H         7.2955898767        4.7277476003       31.1263884828
  H         5.5751017995        4.5582319973       31.4166745696
  H       -10.5455848626        8.7647167087       25.5582739524
  H       -10.2532414235       10.4524627369       25.9530862381
  H        -9.2713073410        9.3180403276       26.8061998528
  C        -4.4022123537       13.7554914947       38.3766218235
  N        -4.2872397751       15.0789320405       38.6380958914
  O        -3.2523698240       16.9585520057       37.6858941626
  S        -5.2196869149       12.7612659717       39.5041317869
  C        -4.7166040798       15.6650041554       39.8897688295
  H        -4.9870839465       16.6754125173       39.6706935267
  H        -5.7574487832       15.2676134500       40.1325644133
  C        -3.7186080509       15.4950151136       41.0569969823
  H        -4.4006148314       15.7528455892       41.8809862470
  H        -3.3049970100       14.4656998099       41.2068673163
  H        -2.9313705861       16.2190180554       40.9715724062
