352
i=
  H         4.3238168717        1.4011689293       12.8698722685
  C         3.6747561557        2.2369987161       13.0437474267
  H         4.2936535363        3.0426829975       13.2783459403
  C         2.8469418488        2.4950759352       11.8276568020
  C         2.9320516063        1.9762865868       14.3400344041
  C         3.8047595064        2.8887818575       10.7106524598
  H         2.2119991098        3.3893417023       11.8060979132
  H         2.2706187740        1.5894275329       11.6341929867
  H         2.3287908550        1.0658304059       14.4548925388
  H         2.2892739024        2.8359812840       14.6065630780
  H         3.6451219116        1.8228894028       15.0568183775
  C         4.6256396828        1.7842100670       10.0810478478
  H         3.3280832305        3.4056207099        9.9315547681
  H         4.4768071930        3.6410483127       11.1070846016
  C         5.1560248398        2.1121532057        8.7623484102
  H         4.0314220040        0.8587672461       10.0468139464
  H         5.3485042951        1.5074863357       10.8121954598
  C         6.3185912169        2.9925621492        8.6661554968
  H         4.3354411690        2.6831236977        8.2154044624
  H         5.2040805659        1.2416898642        8.0831625153
  C         7.6268908382        2.2833187146        9.0647738482
  H         6.3808971944        3.4469869359        7.6831851044
  H         6.0935414956        3.8700451024        9.2577375836
  C         8.8732292892        3.1840927644        9.1554888193
  H         7.8008848739        1.5174317562        8.2980877219
  H         7.3954298397        1.6205884289        9.9149869759
  C         8.5947948993        4.4398120120        9.8933854439
  C         9.3115128742        3.9147732885        7.9135832595
  C         9.9414452664        2.3929916983        9.8660725594
  C         8.7713353405        5.5996984398        9.1818506772
  C         8.3032375160        4.7200650958       11.2384039709
  C         9.2241167246        5.2856990248        7.8952641123
  C         9.7737019333        3.3061413083        6.7666499311
  H         9.5902807004        1.8826123286       10.7078663047
  H        10.3311678825        1.6289651531        9.2151169891
  C        11.1112429465        3.2600874822       10.3086513873
  S         8.2269350992        7.0476864557       10.0462610583
  C         8.0588205179        6.0880798459       11.4734994339
  H         8.2838641348        4.0080157790       11.9602767549
  C         9.5696006531        5.9483300553        6.7791438427
  H         9.7848999572        2.2455772282        6.8815940482
  C         9.9326916583        3.9432695277        5.5957239097
  H        10.8491505350        4.1693421254       10.8459830877
  H        11.6036372136        3.6926475796        9.4071884325
  C        12.1268585101        2.6623432587       11.2995268073
  C         7.4306710217        6.7052791846       12.7362438362
  C         9.9989365037        5.2993520555        5.5665537266
  H         9.6230006049        6.9929444588        6.7621763136
  C        10.4489672976        3.5526107244        4.4003870983
  H        12.8001560581        3.5455072066       11.5141545165
  H        12.7282463377        1.8830455461       10.8486320333
  C        11.6054869346        2.2492043246       12.6903358028
  C         7.3431516640        8.0990868582       12.9533365864
  C         6.9270583393        5.8203887621       13.7992290840
  C        10.5757295362        6.0312624765        4.3972465576
  C        10.7475640386        4.6312832043        3.6289450662
  S        10.6425546411        2.0454575362        3.7502978539
  H        10.8084681249        2.9125181069       13.0205567817
  H        11.1724144173        1.2854568551       12.6462153480
  C        12.7216123345        2.4059621136       13.7107956445
  N         7.8197338010        9.0493676779       12.0614241156
  C         7.0909079954        8.6295190942       14.2210805018
  C         6.5303124022        6.3945285313       15.0111497903
  H         6.6908662769        4.8396369067       13.5006026371
  C        11.8968191630        6.8218308653        4.6061268263
  C         9.4108917419        6.8000903096        3.5904176512
  C        11.2801693232        4.2156353889        2.3982386818
  C        11.3202164393        2.8197158579        2.3068850792
  H        13.0790991046        3.3931780430       13.9154321478
  H        13.6648317287        1.8326050548       13.4670559110
  C        12.3075005418        1.6170612741       14.9603026660
  S         7.7403040209       10.4970642908       12.8237618042
  N         7.2908843430       10.0501628649       14.2991901478
  C         6.6566204958        7.8709701273       15.2870371330
  H         6.1002111865        5.7628541495       15.7160562103
  H        11.6816480959        7.4541760193        5.4728481598
  H        12.0257244825        7.5484560126        3.7411814195
  C        13.1812374877        6.0826345908        4.8124364123
  H         9.1124134959        7.5773816743        4.3309053111
  H         9.8695939273        7.2879637559        2.7093108190
  C         8.1984939593        6.0283199166        3.0199898008
  H        11.6208989134        4.8591175219        1.6738990511
  C        11.6726707967        2.0367540975        1.0827160411
  H        11.3262077595        1.9764926268       15.4053185453
  H        11.9225216805        0.6632171100       14.6082639540
  C        13.3647876014        1.6850949968       16.1682119060
  C         6.2791134600        8.5577832116       16.4538595441
  H        12.9629703696        5.3510699208        5.5671734257
  H        13.2292098683        5.4946290268        3.9687622277
  C        14.3817493593        7.0389029196        4.9161616282
  H         7.7445291537        5.3965212218        3.7119861199
  H         8.4032590794        5.3599953062        2.2890797299
  C         7.1622432601        7.0497355168        2.5671066698
  C        11.7297444697        0.6588493904        0.9555298197
  C        11.9767033122        2.7489840076       -0.1359874958
  H        14.3190874269        2.0581816248       15.7853919296
  H        13.4668149542        0.6263018851       16.4342687210
  C        12.9865725199        2.6295475595       17.3615568628
  H         6.3679676816        9.6081521828       16.4357626530
  C         6.0571393759        8.1103417092       17.7475981332
  H        14.1406885538        7.6356903981        5.7187857816
  H        14.4784102046        7.6141132620        4.0044109678
  C        15.7323156363        6.4108913529        5.3104895105
  H         6.8268040632        7.7521439639        3.2744567400
  H         7.4717030795        7.6009826723        1.7053425541
  C         5.9216528498        6.3861826361        2.0550788527
  N        11.5135947709       -0.2437057187        1.9549246282
  C        12.0633237347       -0.0047669563       -0.2584293888
  C        12.3810556043        2.1565676974       -1.2882084303
  H        12.1538014262        3.8182383469       -0.1406091688
  H        12.4409588452        3.5250958192       16.9491735202
  H        13.9090982245        2.9039691833       17.9578597181
  H        12.4108713618        2.1213688197       18.0224383604
  S         6.0556511592        6.5058907256       18.3846572809
  C         5.9798968866        9.2313717715       18.7919927095
  H        15.9622042736        5.5568389951        4.6993624519
  H        16.4989406367        7.1296096005        5.0917460860
  C        15.8967796326        5.9214708490        6.7979455977
  H         5.2568159099        5.9057638397        2.8234483298
  H         6.2360471908        5.5337572938        1.4528552426
  C         4.9039865620        7.2681437536        1.2834721507
  S        11.6469743218       -1.8061457272        1.3737082162
  N        12.0108085745       -1.3882579036       -0.1437399481
  C        12.3179324407        0.6746710476       -1.4204772661
  H        12.5935014599        2.7747799344       -2.1625401373
  C         5.9275783291        7.1864810623       20.0047176960
  N         5.8823050723        8.5838845128       20.0256005733
  O         6.1470197232       10.4066705205       18.4571087520
  H        15.7069752126        6.5774318237        7.6528710631
  H        15.1979404541        5.1230292009        7.0485876746
  C        17.2310952835        5.1767083989        7.0787185881
  H         5.3859861611        7.7904321313        0.4646259058
  H         4.2129388964        6.5834567241        0.9240644315
  C         4.2512750172        8.3785318193        2.0744520321
  C        12.5786994762       -0.0938336274       -2.5985478020
  S         5.7361231617        6.3796130443       21.5722567936
  C         5.9381928050        9.3461809067       21.3063401479
  H        17.2459001252        4.4635979448        7.8781308563
  H        17.4286406311        4.5052042961        6.3043365395
  C        18.3307177761        6.1212258391        7.1215059570
  H         5.1127781670        8.9407216442        2.5619308384
  H         3.6070394193        7.8445201666        2.8052516968
  C         3.4832928527        9.4054409705        1.1832993881
  H        12.2530724431       -1.0642220220       -2.5761711923
  C        13.0909866146        0.2884124929       -3.8475030651
  H         5.2440021265        8.8357299819       21.9525926902
  H         5.4269614200       10.3208630648       21.1637603743
  C         7.3771850323        9.5219321323       21.8315603650
  H        18.7050520933        6.0920096166        8.1335797004
  H        18.0056404594        7.0961248734        6.7881746123
  C        19.4964438584        5.7352301884        6.2591509704
  H         2.8593238580        8.8699088024        0.3640344337
  H         2.8041538501       10.0079943014        1.7620361539
  C         4.3601725278       10.3530503802        0.5501357631
  S        13.6243542074        1.8509329661       -4.3389150097
  C        13.1919091935       -0.7883371748       -4.9098785746
  H         8.1069823767        9.5349871631       21.0265961405
  H         7.6661248308        8.7150442541       22.5555900664
  H         7.4771544161       10.4633500527       22.3869145288
  H        19.8672850038        6.5806852968        5.7354396588
  H        20.3579984085        5.2723978320        6.6673954415
  H        19.1301651638        5.2332714263        5.3713147925
  H         3.7869209217       11.1948999392        0.2257096235
  H         5.1722368286       10.5791521132        1.2269324814
  H         4.8014804743        9.8753239201       -0.2493333808
  C        14.1755210952        1.0335342296       -5.8031814794
  N        13.9410227643       -0.3150483940       -5.9281499731
  O        12.9100044521       -1.9815955264       -4.7841481381
  S        15.0205040061        1.7806898033       -7.2076760361
  C        14.1764301144       -1.1768167903       -7.0254734523
  H        14.3714071438       -2.2575007100       -6.7187296523
  H        15.0638618736       -0.9516015806       -7.5962987786
  C        12.8986343523       -1.0740604947       -7.8638029845
  H        12.4036431343       -0.2353782446       -7.5073220088
  H        12.1856672713       -1.8821789851       -7.7007563605
  H        12.9443317506       -0.9674936807       -8.8846604490
  H        -3.8084143156       14.3968652453       16.2853291265
  C        -3.3945419472       13.4176170514       16.4646995081
  H        -4.2072780782       12.7716531782       16.7205639558
  C        -2.4350934190       13.3582131767       17.5730995267
  C        -2.8530740106       12.8778971896       15.1261848037
  C        -3.1632249360       13.3844262225       18.9653128370
  H        -1.9510311399       12.3792166353       17.4584253896
  H        -1.7369570211       14.2262428062       17.3915617157
  H        -3.5992891946       12.9961932266       14.3216278562
  H        -2.0240845443       13.3912664743       14.6923655206
  H        -2.6375873214       11.7419800906       15.1376465201
  C        -2.0605178411       13.4405143021       20.0145596126
  H        -3.6118270290       12.4131700768       19.0561831045
  H        -4.0134526531       14.0984707450       18.9831413170
  C        -2.5860611096       13.5272297024       21.4179596659
  H        -1.3888747634       12.6612434477       19.9817305414
  H        -1.5120573194       14.2923253239       19.8273224174
  C        -1.6095543991       12.8969397157       22.4391911038
  H        -3.5585417941       12.9257280957       21.3023728827
  H        -2.8100909989       14.4931509644       21.7074022567
  C        -0.3077160727       13.7198195753       22.5435209652
  H        -1.9875182249       12.7913634965       23.4029083082
  H        -1.4363627731       11.8393849776       22.1679457157
  C         0.9208750813       12.9735239704       23.2069462734
  H        -0.0111037807       14.1603247200       21.6144221825
  H        -0.3966672763       14.5623910112       23.1537246384
  C         1.1380237836       11.6122809540       22.5660536060
  C         0.4843044951       12.3430516194       24.4844481226
  C         2.1673835374       13.9024865201       23.2740486196
  C         0.9841795397       10.5559127284       23.4334478092
  C         1.5410821030       11.3304297201       21.2291078575
  C         0.5076854730       10.9548212406       24.6394502529
  C         0.0186834687       12.9471315092       25.6631589067
  H         2.1142079348       14.6243354688       22.4740677092
  H         2.0690236495       14.4634756544       24.2247936292
  C         3.4474137625       13.1130055480       23.5496903525
  S         1.3788110141        9.0011951017       22.6301082568
  C         1.6698258234        9.9907865748       21.1140378239
  H         1.7255908578       12.1248829516       20.4396716110
  C         0.0683928892       10.3577594252       25.8362057104
  H         0.0724211630       14.0346837482       25.6086348218
  C        -0.3570441188       12.4116711867       26.8830905019
  H         3.6034795342       12.3795180020       22.8710833967
  H         3.3433041297       12.4772807709       24.4336576620
  C         4.6617476890       14.0168473988       23.7849771438
  C         2.0162125535        9.2241859497       19.8411258503
  C        -0.4052426224       11.0776626651       26.9853092486
  H         0.1154557009        9.3047382231       25.8811835915
  C        -0.7369548625       12.8879253440       28.1209208738
  H         5.4511026915       13.5506872778       24.3130258119
  H         4.2824370191       14.7325579846       24.6343669057
  C         5.1495474165       14.6344454291       22.4531491823
  C         2.1670511220        7.9057005195       19.6244254276
  C         2.3630903148       10.1124650116       18.7064927477
  C        -0.8606749587       10.4926708718       28.2445232701
  C        -1.1595895051       11.8585662371       28.9022369208
  S        -0.9832109779       14.3876019812       28.9084609833
  H         5.6997604363       15.5531957311       22.7787494811
  H         4.4409345325       15.1443546745       21.8883140260
  C         6.3251956860       13.8569026356       21.7579983812
  N         2.2545967990        6.9145897312       20.6858537854
  C         2.4062724318        7.3051755262       18.4340678959
  C         2.7085614296        9.5844637084       17.4566614703
  H         2.3734657191       11.1919603030       18.6833700970
  C         0.2035253417        9.6877717849       29.1183908925
  C        -2.1942269494        9.7281900955       28.0309750207
  C        -1.7137933521       12.2651480357       30.1447700649
  C        -1.6239692048       13.5722249874       30.3622642035
  H         7.2897495256       14.4094343155       21.8351189572
  H         6.5065969099       12.9906915916       22.4370740315
  C         5.8757796459       13.4880586575       20.3703888595
  S         2.2124623617        5.4254157437       19.9886845955
  N         2.3937118919        5.9378825368       18.4225227504
  C         2.7898679015        8.0959046147       17.2693869857
  H         2.8967871273       10.2804487331       16.6190756283
  H         0.4704951205        8.7728926828       28.7296812465
  H        -0.3124361849        9.2844758876       30.0007043890
  C         1.4585047345       10.5358227258       29.5043374577
  H        -1.7849975425        8.8770655668       27.4539039079
  H        -2.5480090728        9.2119181503       28.9353761378
  C        -3.3905117035       10.3630314385       27.2832318810
  H        -1.9225493558       11.5167020095       30.9113029462
  C        -1.8990354204       14.2838604094       31.6620407762
  H         4.9999300169       14.0737928915       20.0299404533
  H         5.5350899418       12.4039719482       20.4228529225
  C         7.0479347531       13.4771419929       19.4866502814
  C         3.0332251186        7.4927947335       16.0188277427
  H         1.8534698184       10.9172137350       28.5246089661
  H         1.2424274290       11.2883512631       30.2742879425
  C         2.5313924503        9.6653294297       30.1255745386
  H        -2.9267387529       10.4401361450       26.3466623934
  H        -3.5317138583       11.3871990053       27.4722670511
  C        -4.6439397824        9.4386389955       27.2926483353
  C        -1.7656555693       15.7230303821       31.8294641250
  C        -2.0978945555       13.5368612561       32.9561858757
  H         7.9261908090       14.0904597653       19.5836287686
  H         7.4766835107       12.4520014523       19.5210846928
  C         6.6731994974       13.6178690532       18.0467917210
  H         2.8890678161        6.4173988542       16.0149275561
  C         3.3256430439        7.9635048618       14.7527414685
  H         2.9543314264        9.0077945793       29.3352843912
  H         2.1395992931        9.1669096926       31.1093126967
  C         3.7669836314       10.3921316970       30.6211584294
  H        -4.5133693010        8.5386245211       26.6746818386
  H        -4.9310530774        9.1529606688       28.3129017496
  C        -5.8048041320       10.2192951969       26.8058106136
  N        -1.4359130523       16.5803317976       30.7718209009
  C        -2.1245268521       16.3554416671       33.0003106946
  C        -2.3304883480       14.2534767584       34.2006098639
  H        -2.1790624694       12.4062218059       32.9152370627
  H         7.2253778199       12.9143890019       17.4093301901
  H         5.5770601214       13.3275463566       17.9217415150
  H         6.7402239396       14.6443861766       17.7246776089
  S         3.6408378263        9.5862857899       14.3451403829
  C         3.5554985520        6.9944534636       13.6230499541
  H         4.0590278755       10.9046587496       29.7117021917
  H         3.5524292966       11.1108647508       31.4354029834
  C         4.8784461031        9.5740764235       31.3045309520
  H        -5.4031900973       10.7227691949       25.9168185223
  H        -6.2175152218       10.8903272283       27.5514740909
  C        -6.9561223163        9.4490980989       26.3196014392
  S        -1.6426084316       18.1294168549       31.3223858598
  N        -2.0001176501       17.7778311652       32.8668547451
  C        -2.5050611223       15.7407069415       34.2015572099
  H        -2.7293498623       13.8079822544       35.1271045605
  C         4.0831860230        9.0431140061       12.7673498162
  N         4.0963426009        7.6826444736       12.5921069500
  O         3.3152917573        5.7917809756       13.5886943787
  H         5.3936538762       10.1103563829       32.0464644383
  H         5.6500065547        9.6745596234       30.5198094977
  C         4.6764036063        8.0688860826       31.6171997294
  H        -6.6010223514        8.5949951158       25.7771964690
  H        -7.5187424205        8.9742635390       27.1467683828
  C        -7.8447471006       10.3721457645       25.5291264431
  C        -2.8450983615       16.4674821035       35.3887698898
  S         4.6846098255       10.1047469298       11.5626209440
  C         4.3917701334        7.0860424446       11.3485035881
  H         4.1731990177        7.9057044353       32.5946438443
  H         3.9943029658        7.5861030736       30.9418414918
  C         5.9270691064        7.1936984069       31.5316132425
  H        -7.3913656627       10.5737244967       24.5221468704
  H        -8.0084820572       11.3444709350       26.0994706880
  C        -9.2909026138        9.8367681794       25.2850936856
  H        -2.7342021425       17.5698204130       35.3551457392
  C        -3.4465810600       16.1067023985       36.5712976421
  H         5.2856810969        7.5516411937       10.8907421025
  H         4.6719755814        6.1013481652       11.5487163864
  C         3.1066989721        7.1333203366       10.4388060637
  H         5.7282083686        6.5786781448       32.4263083620
  H         6.8597323020        7.7180089421       31.8087371341
  C         5.9524720072        6.4336590422       30.1876080726
  H        -9.8388318388       10.4091829134       24.5515908111
  H        -9.3032922866        8.8254082111       24.8792139311
  C       -10.1200345383        9.7180389962       26.5759719608
  S        -4.1109262038       14.5981632088       36.9967973810
  C        -3.5530969089       17.0769496345       37.6613721793
  H         2.8898798214        6.1430907741        9.9478764060
  H         2.2839830871        7.4956727865       11.1153004517
  H         3.2873438513        7.8319178217        9.6246240271
  H         6.7166376729        5.6571394700       30.1375284861
  H         6.1002725554        7.1087049383       29.2962299372
  H         5.0148728634        6.0235833900       29.9724190575
  H        -9.7928224420        8.9245502191       27.2255663030
  H       -11.1455579662        9.3909319095       26.2648408957
  H       -10.1756073329       10.6667660052       27.0754499587
  C        -4.4245923865       15.1496104651       38.6130778541
  N        -3.9720898716       16.4328769024       38.7774530390
  O        -3.0556954751       18.1684412577       37.6916913892
  S        -4.7497476470       14.0171978571       39.9521344131
  C        -4.1848852967       17.1507834221       40.0505436584
  H        -4.6303952682       18.1235926030       39.7376745276
  H        -5.0055730925       16.7674647939       40.6010512294
  C        -2.9028603729       17.4068319584       40.7945817940
  H        -3.0286911230       18.3141465377       41.2980501938
  H        -2.7837481870       16.7085633635       41.6189502030
  H        -1.9484537573       17.5188423934       40.2216319643
