352
i=
  H         3.3453702098        3.9804788130       12.1092923625
  C         3.2905685491        2.8926519984       12.1921995807
  H         2.3016872609        2.6979555398       12.6206148592
  C         3.1363900020        2.4242573133       10.7661779060
  C         4.3854150945        2.1879413996       13.0591129900
  C         4.4478186017        2.7095714980        9.9537504562
  H         2.2470387298        2.8328346096       10.3274927691
  H         2.8385581534        1.3306053276       10.7369884758
  H         4.1545836665        2.2811758069       14.0833004515
  H         5.3076105903        2.7434115221       12.9591144209
  H         4.5760737040        1.0660459925       12.8741877501
  C         4.9196413030        1.5583915201        9.0770669801
  H         4.2879204930        3.5543326482        9.2295426526
  H         5.2291586850        3.0421212350       10.6859514803
  C         5.7379509893        2.0385993102        7.8627522655
  H         4.1142876794        0.9631792247        8.6343104000
  H         5.4893807290        0.8436519329        9.7426998021
  C         6.9315038650        2.8764612569        8.2144306362
  H         5.0813407472        2.4999031528        7.0900123702
  H         6.0590307400        1.1307145429        7.3706706957
  C         8.0639004362        2.0784963327        8.8211768859
  H         7.2886198642        3.3784037717        7.3614223799
  H         6.5827932612        3.6039659298        8.9924160989
  C         9.2604177157        2.9151595699        9.2403997185
  H         8.3176488816        1.1662774363        8.2314315903
  H         7.6059854120        1.6448509887        9.7081347378
  C         8.9406617946        4.2646558471        9.9237444039
  C         9.7594041348        3.5378919788        8.0277525199
  C        10.3581090991        2.2028290330       10.0099282525
  C         9.2847976290        5.3930848160        9.1462705064
  C         8.2945837171        4.6084552478       11.1270337456
  C         9.8275144208        4.9549240991        7.9257526386
  C        10.2065332729        2.9132178383        6.9477029534
  H         9.8923647174        1.7624662733       10.9251363759
  H        10.4289613895        1.2750226377        9.4949815413
  C        11.6934605923        2.9772949543       10.1835810276
  S         8.8914354515        6.8522582665        9.9688283714
  C         8.3165593267        5.9668605135       11.2999815571
  H         7.9127688810        3.8196127102       11.7672144561
  C        10.2985994092        5.5838307296        6.8124314087
  H        10.1394012831        1.8694907133        6.9405158151
  C        10.6399933124        3.5330180322        5.8029589108
  H        11.3847631469        3.9487324804       10.6208993095
  H        12.2520909850        3.2216159538        9.2324458612
  C        12.6614534216        2.4585610995       11.2583982256
  C         7.6938418788        6.6664773918       12.5026062941
  C        10.6620664842        4.8755083178        5.6592344682
  H        10.2673219795        6.6440869098        6.7718350890
  C        11.0969003949        3.0796786621        4.5673661762
  H        13.5838474446        2.9606762732       11.2441431165
  H        12.8889991886        1.3820902214       11.1016467458
  C        12.0178615658        2.5258578348       12.6395493548
  C         7.7536992774        8.0184352691       12.8368474348
  C         7.2290297619        5.7579771996       13.6386886185
  C        11.1407894359        5.5836941383        4.3806714429
  C        11.4130670101        4.1440454457        3.7143170070
  S        11.3697727775        1.5247704961        3.9111715018
  H        11.7202196093        3.6099331329       12.9316420985
  H        11.0476779262        2.0378549596       12.7633310280
  C        12.9802517173        1.9978305908       13.7011622106
  N         8.1043797865        8.9448613913       11.9157247614
  C         7.4705504824        8.5073005947       14.0695817886
  C         6.9519590354        6.2890969055       14.8816125035
  H         7.3430532413        4.7345200049       13.5530921149
  C        12.4192608085        6.4861388837        4.5507943249
  C        10.0721453017        6.3837287356        3.6155411563
  C        11.6956758595        3.5806397895        2.4120833454
  C        11.6401558856        2.2514039596        2.3502002569
  H        13.4684217707        2.9462697489       14.0922480195
  H        13.7389157380        1.3836099415       13.1779835571
  C        12.4056037587        1.1446340796       14.9110134848
  S         7.9817765438       10.3986257839       12.6211476687
  N         7.4668029650        9.8922962666       14.0443220301
  C         7.0253016823        7.7315597980       15.1342774561
  H         6.4113876529        5.6476822057       15.5420090984
  H        12.2396912722        7.3222023329        5.1967401180
  H        12.7343251759        6.8417476894        3.5820978399
  C        13.6041934928        5.5673713195        4.9806191092
  H         9.8702035356        7.2325797693        4.2816470597
  H        10.5095211252        6.7602921515        2.6616987200
  C         8.8306106506        5.6504655235        3.1584300015
  H        11.9914895445        4.1697818437        1.6040941410
  C        11.9386054988        1.3577700300        1.1525264501
  H        11.4350921151        1.5782694702       15.2869068568
  H        12.2703064073        0.1155393233       14.5291998858
  C        13.3598373914        1.1075752923       16.1855515859
  C         6.7372755030        8.3606896728       16.3912494005
  H        13.3077437895        5.0742681393        5.9513553070
  H        13.8435282863        4.8387500347        4.2348354588
  C        14.9888212198        6.2540919292        5.2918016502
  H         8.4856232676        5.0854080978        4.0423964311
  H         9.1668102136        4.8725363819        2.4450939928
  C         7.7755390990        6.5555150719        2.6553914594
  C        12.0440496085       -0.0601313936        1.0138520230
  C        12.0206473831        2.0857564978       -0.0703323507
  H        14.3747709419        1.0313158974       15.8011565276
  H        13.2771712434        0.1941325933       16.8159639984
  C        13.2674830012        2.4127765465       17.0140166935
  H         6.7511746871        9.4617121063       16.3808205001
  C         6.4137435215        7.8600242357       17.6112972164
  H        14.8704182441        7.0055288943        6.0364962475
  H        15.5220618605        6.6475411877        4.4362316932
  C        15.9729930454        5.3306220183        5.9872942319
  H         7.6727450233        7.2843431435        3.5000404140
  H         8.2015274406        7.0793206643        1.7618791860
  C         6.4434187428        5.8543019173        2.3382082319
  N        11.8354434159       -0.9436542748        2.0608529331
  C        12.3455082266       -0.7674508035       -0.0875829446
  C        12.4015369864        1.4231016205       -1.2669010791
  H        11.7534899476        3.0938465476       -0.1149915084
  H        12.5067540994        2.9972119736       16.5037917823
  H        14.1398286072        2.9605605255       16.9969341481
  H        13.0566548233        2.2247812834       18.1016569554
  S         6.1203495028        6.2010132249       18.0902393926
  C         6.1719788143        8.9128789422       18.6746537668
  H        15.4484926018        4.7869100559        6.7940341141
  H        16.3376110185        4.5069843126        5.3842806668
  C        17.1055963075        6.1285663630        6.5191470675
  H         5.8901985020        5.6449645057        3.2463653077
  H         6.7479882734        4.9075378148        1.8853040096
  C         5.5896974715        6.7098009808        1.3591487754
  S        11.9150572126       -2.5119259269        1.5245559763
  N        12.2921156354       -2.1319395803       -0.0049209533
  C        12.5887278645       -0.0478541939       -1.2559713680
  H        12.3202128923        1.8752101041       -2.2542557647
  C         5.6510311861        6.9210331932       19.6263123860
  N         5.7262041005        8.2616378198       19.7726440032
  O         6.4718314880       10.0872229801       18.5245190237
  H        17.5449712365        6.5596925033        5.6285508529
  H        16.6681035708        6.9929839706        7.0739878984
  C        17.8820290630        5.3092573783        7.4659725621
  H         6.2216100905        7.0576368789        0.5020217361
  H         4.7890278406        6.0679607820        1.0692789818
  C         4.7403280088        7.8899598342        2.0342532632
  C        12.8094489292       -0.8268965273       -2.4440053946
  S         5.6189048754        5.9124946883       21.1202259837
  C         5.6188974593        8.9602977977       21.0801171907
  H        17.2938370104        5.1701455491        8.3216976462
  H        18.1611707325        4.2540213822        7.1275152834
  C        19.1904387884        5.8916142809        7.8370861884
  H         5.4834258184        8.4009472849        2.6943163790
  H         3.8507292401        7.6104274483        2.6333193633
  C         4.2930847922        8.9530122034        0.9675738226
  H        12.4926724536       -1.8164155808       -2.4119024192
  C        13.3998993485       -0.4454602228       -3.6067885495
  H         4.8854694443        8.4901184365       21.7638224790
  H         5.4310622752       10.0548863479       21.0292604242
  C         7.0236198259        8.8582566790       21.7295648489
  H        19.6499678142        5.4033582072        8.7578967550
  H        19.0608222617        6.9560937028        7.9849584342
  C        20.2417287481        5.7661540817        6.7315062386
  H         5.1990471705        9.2339718168        0.4243256462
  H         3.6778740738        8.5376535205        0.2500515966
  C         3.7143841846       10.2152606660        1.5447454963
  S        14.0550734767        1.0872232596       -3.9980413213
  C        13.4617760638       -1.4094631562       -4.6481002119
  H         6.9835439513        8.4915809280       22.7280230671
  H         7.4419033535        9.8301166004       21.9124728679
  H         7.7809207264        8.3628403289       21.1528297180
  H        19.8602904534        6.2814754995        5.7475024757
  H        21.1405554049        6.2942959641        6.9511969761
  H        20.4462904631        4.7480976072        6.5530975592
  H         4.0667725252       10.4553635846        2.5161540301
  H         3.9320453358       11.0710110079        0.8683336201
  H         2.5759580277       10.1347691408        1.6074484660
  C        14.4057806875        0.3707332830       -5.5865315198
  N        14.1611667301       -0.9509052434       -5.6783485914
  O        13.0149758044       -2.5618695223       -4.4969334546
  S        15.1786701101        1.2355280939       -6.8359658290
  C        14.2686946665       -1.6712972698       -6.9307202112
  H        14.4782899488       -2.7160273321       -6.7180082468
  H        15.0278645556       -1.1495061772       -7.4822275447
  C        12.9376329977       -1.5822117087       -7.6683652866
  H        12.0312035063       -1.4176178320       -7.0875139268
  H        12.7762127950       -2.5257307174       -8.1510042892
  H        13.0584573498       -0.7956347409       -8.3893341422
  H        -1.1331545683       15.0257909967       17.4227085896
  C        -2.1634304907       14.8939758773       17.1880958472
  H        -2.6081607068       15.8786165432       17.2024401750
  C        -2.8960001177       13.9968490474       18.2787254325
  C        -2.2631820120       14.3677152411       15.8041659303
  C        -2.1144890948       12.7414174198       18.7225331910
  H        -3.2660318221       14.6225117259       19.0534175171
  H        -3.8061705195       13.4831863256       17.8526390140
  H        -2.1054247496       13.2870593041       15.6701475885
  H        -3.2961498368       14.5778888180       15.4471603731
  H        -1.5761864430       14.8455773115       15.1172330181
  C        -1.2653466812       13.0227733078       19.9613899369
  H        -1.4755897046       12.5471405476       17.8514166062
  H        -2.7290992938       11.8618293596       18.8926566714
  C        -2.1009111275       13.0430682354       21.2813073316
  H        -0.4841825055       12.2286721808       19.9901898172
  H        -0.7711954508       14.0152625772       19.8009520196
  C        -1.2798289149       12.6622817287       22.4654150028
  H        -2.7997935721       12.2293727890       21.0359277974
  H        -2.6306980057       13.9711802738       21.3248488367
  C        -0.1406010506       13.6858947836       22.6808126661
  H        -1.9390409969       12.7348473923       23.3562264958
  H        -1.0368073179       11.5766350603       22.3609664813
  C         1.0700388129       13.0432776727       23.4195393429
  H         0.2105137587       14.1843422376       21.7751137305
  H        -0.5057842569       14.4802774809       23.3826652070
  C         1.4257388928       11.7031807487       22.7356753171
  C         0.7320429602       12.3514685327       24.6818197185
  C         2.3242119092       14.0051966308       23.6836710516
  C         1.2971747476       10.5934142756       23.5676843413
  C         1.8478170891       11.3252403537       21.4422723131
  C         0.8299344791       11.0114083906       24.8094520014
  C         0.4792499400       13.0255587672       25.8751976654
  H         2.5327772413       14.5817584533       22.8078004992
  H         2.0340383577       14.7951101914       24.3548796220
  C         3.5721905478       13.3158052816       24.1897216080
  S         1.7800502404        9.1261206347       22.7957016569
  C         2.0612795086       10.0416660944       21.3274300213
  H         1.9011149628       12.0268370892       20.5979190610
  C         0.4295785391       10.4212174241       25.9437400498
  H         0.4192598338       14.1274090278       25.8233905085
  C         0.0478926993       12.4610676178       27.0191513977
  H         3.8394462720       12.7023477341       23.3522773578
  H         3.2925891557       12.6884422321       25.0800091812
  C         4.7432225302       14.2646994716       24.5906693397
  C         2.4058005580        9.3150316125       20.0392333271
  C         0.0470534536       11.1076532970       27.1197090993
  H         0.4693507069        9.3560509087       25.9066819670
  C        -0.3678266915       12.8563638752       28.2448395806
  H         5.3928816782       13.7843517500       25.3889249564
  H         4.2893105881       15.1285461981       25.0675181709
  C         5.6287328660       14.8589877430       23.4684545254
  C         2.2515106621        7.9300997195       19.7645134723
  C         2.9638635419       10.1561255066       19.0101064305
  C        -0.4773371056       10.4479899856       28.3906683367
  C        -0.7492492572       11.7670922235       29.0292712863
  S        -0.5693554709       14.3561963039       29.0666088379
  H         6.3470074321       15.4887385610       23.9149532915
  H         5.0573348808       15.5886599948       22.9360034814
  C         6.4012476264       13.9281124493       22.5528142644
  N         1.9333678184        6.8884688310       20.6905671217
  C         2.4880201656        7.3408440333       18.5168365623
  C         3.2878093257        9.5522785690       17.7512454100
  H         3.1596774983       11.2005469720       19.1411654437
  C         0.6738656294        9.6242177437       29.0551187378
  C        -1.8150796091        9.6586645801       28.0882858510
  C        -1.1645626554       12.1962422443       30.2790818456
  C        -1.1234968742       13.5280899750       30.4499394100
  H         7.3882562365       14.3089097294       22.4666180381
  H         6.7516345239       13.0391864928       22.9543121022
  C         5.7602791279       13.8550910338       21.1144096596
  S         1.8732380888        5.5138201735       19.9595535410
  N         2.1273800822        5.9521192858       18.4325618488
  C         3.0841419087        8.0989681261       17.4260000056
  H         3.7934919676       10.2601040374       17.1362124436
  H         0.9762633046        8.7601834744       28.4556776959
  H         0.4058815172        9.0724774274       29.9577756279
  C         1.8458865530       10.4131463470       29.4430216286
  H        -1.6753042262        8.6328677093       27.7484880281
  H        -2.2038056427        9.5507891679       29.0894277901
  C        -2.8844870370       10.4908336923       27.2089744052
  H        -1.5491068587       11.4757265815       31.0461978140
  C        -1.4073301226       14.2338598336       31.7921155665
  H         5.8606469702       14.8722804434       20.5817983328
  H         4.8040697479       13.5080576861       21.3524613041
  C         6.5340405852       12.9874148459       20.1668380765
  C         3.3401752338        7.4739701815       16.1680819106
  H         2.2409427530       10.9976615278       28.6252256850
  H         1.5836751869       11.1653192041       30.2174572534
  C         2.9006282766        9.5267173225       30.1466541010
  H        -2.6261778472       10.5773663466       26.2312256876
  H        -2.8979426883       11.5591855244       27.5142093548
  C        -4.2349284743        9.8267242664       27.2403979918
  C        -1.5600295142       15.6276097862       32.0050572916
  C        -1.5547802776       13.4230403104       33.0728294070
  H         7.3001577968       12.4678991254       20.7763908020
  H         5.7237394246       12.3675791333       19.8200278747
  C         7.2519861710       13.6150184643       19.0216833889
  H         3.2186381845        6.4145697441       16.1291070382
  C         3.7296019502        7.9598959620       14.9384292696
  H         3.1883693321        8.7087509765       29.4922770117
  H         2.4990019744        9.0473653399       31.0679899802
  C         4.0034496338       10.3728547259       30.5581042455
  H        -4.1662584097        8.8354114585       26.8452570339
  H        -4.4565671387        9.7498407932       28.2843350368
  C        -5.2953356649       10.7831666751       26.8271124939
  N        -1.3634975498       16.5618714237       30.9702834673
  C        -1.8849845444       16.2253801755       33.1676170976
  C        -1.9740309565       14.0155276085       34.2373316602
  H        -1.4584984177       12.3940609366       33.0789368920
  H         6.5351232104       13.6249364344       18.1427449387
  H         7.5750252732       14.5933080910       19.2810712286
  H         7.9966293081       12.8856932569       18.8733808880
  S         4.0802720977        9.5992126749       14.5504615240
  C         3.7500791809        6.9792624747       13.8708665818
  H         4.0430724745       11.2676253185       29.9497542719
  H         3.8182772299       10.8999934832       31.4662919093
  C         5.3984975558        9.7514406420       30.6961948673
  H        -4.9436922193       11.6798577637       26.3650604543
  H        -5.8135962103       11.1467610215       27.7294236507
  C        -6.2801094069       10.0730488313       25.8554350304
  S        -1.8236920298       18.0238306769       31.5557371484
  N        -2.0025824479       17.6486315596       33.1375820655
  C        -2.1952799421       15.4670502766       34.3250152075
  H        -2.1611824103       13.3728885424       35.0717934701
  C         4.2662684942        8.9447927907       12.8954528246
  N         4.1485521979        7.6109278188       12.7560711482
  O         3.5790280312        5.7803599077       13.9150062083
  H         6.0350276852       10.5081799499       31.2297152499
  H         5.8577865099        9.6058439586       29.7962657015
  C         5.3989745060        8.4497972117       31.5128511272
  H        -5.7616237919        9.3702321586       25.1294894813
  H        -6.9485287540        9.4848812344       26.4074898907
  C        -7.0034285527       10.9890074400       24.8838292534
  C        -2.4793305874       16.1622247742       35.4785801239
  S         4.7676147318        9.9886004496       11.4413190772
  C         4.2454938290        6.9855211494       11.4529139338
  H         5.3032848000        8.6338929755       32.5447423923
  H         4.5586193822        7.8069978786       31.1936248971
  C         6.7234669240        7.6847419772       31.4696247590
  H        -6.4123309286       11.1406376544       24.0226124215
  H        -7.1513149801       11.9854183532       25.3669148379
  C        -8.4350740206       10.4644385081       24.5870886571
  H        -2.1545532376       17.2444346382       35.4724693294
  C        -2.9868772801       15.7276291614       36.6986458854
  H         5.0418545868        7.4316598311       10.7461337557
  H         4.4595199483        5.9360953032       11.6668980740
  C         2.9180195760        7.2085322042       10.7276188127
  H         6.8735254692        7.0197003151       32.3228750445
  H         7.5532734761        8.3963526701       31.6201808070
  C         6.9297202050        6.7981728459       30.1922118374
  H        -8.7981069080       10.8370316985       23.6621548513
  H        -8.2924486881        9.4132969822       24.4582296428
  C        -9.3963162355       10.6610570742       25.8155450172
  S        -3.7064780772       14.2016940271       37.0727273869
  C        -3.0858269737       16.7266043894       37.8101132008
  H         2.5090937948        8.2483721079       10.7502567735
  H         2.9908668156        6.9549619203        9.7103865934
  H         2.1324536670        6.4986541337       11.0670011883
  H         6.3503107022        7.0894908451       29.3153979442
  H         6.7267406277        5.7353046167       30.2462265638
  H         7.9853603802        6.8872760232       30.0495541725
  H        -9.6659650014       11.7622882760       26.0177157502
  H        -9.0033919252       10.2386199491       26.7390539347
  H       -10.2997931698       10.1538356801       25.6096482189
  C        -4.0685966279       14.8805821807       38.6370844023
  N        -3.7278631129       16.1552146643       38.8070140564
  O        -2.4764521000       17.7715235158       37.9129369004
  S        -4.9949874551       13.9943341312       39.8118255378
  C        -3.9138595448       16.8037962972       40.0710162712
  H        -4.2162626217       17.8055323890       39.8525008192
  H        -4.8128130771       16.4974103783       40.6129082885
  C        -2.6463373588       16.9097295884       40.8063470100
  H        -2.9642149315       17.1578129673       41.7522388107
  H        -2.1989370282       15.9089092182       40.8355232201
  H        -2.0352105125       17.6362717679       40.4154882541
