352
i=
  H         1.8968683854        1.9302105728       12.4700331871
  C         2.9700849847        2.1597197703       12.3506684395
  H         3.4672759132        1.2466261100       12.0756896691
  C         2.9157923070        3.1165605689       11.2022205213
  C         3.5919136983        2.6517663880       13.6707008506
  C         4.2577529056        3.1848013243       10.3814093378
  H         2.4710960716        4.0633865361       11.4753668793
  H         2.1215738584        2.7899168714       10.6000209306
  H         4.5960002832        3.0511078555       13.5902705398
  H         3.5187953278        1.7869305459       14.3559298148
  H         2.9478517066        3.3750903271       13.9869592815
  C         4.6349932505        1.9061205366        9.6547792467
  H         4.1640207281        3.9037066463        9.5626124930
  H         5.0366360418        3.5646736434       11.1134154222
  C         5.4506535409        2.0630842765        8.3429561426
  H         3.6998365902        1.4049017182        9.4664738803
  H         5.0538663991        1.2750598363       10.4379807558
  C         6.7405426670        2.8944114786        8.4201557907
  H         4.7932947982        2.5989343353        7.6765014934
  H         5.5804305551        1.1321962054        7.7516671838
  C         7.9422287496        2.0036541483        8.8847280736
  H         6.8918198015        3.2028342209        7.3409007719
  H         6.4872765113        3.7806838454        9.0588021180
  C         9.2155385970        2.8451046440        9.1050839433
  H         8.2600025831        1.2361574726        8.1917806025
  H         7.6080860773        1.5381106797        9.8131850472
  C         8.8661038606        4.2312591165        9.6675931177
  C         9.7413484744        3.4278466743        7.8455587807
  C        10.2133506596        2.1453077150       10.0211300431
  C         9.0920039831        5.2587822780        8.7736646434
  C         8.3649824193        4.6739568196       10.8785811606
  C         9.6087132407        4.7805706387        7.6035112287
  C        10.2647578025        2.7288330362        6.7641287018
  H         9.6668456072        1.9790626632       10.9803644268
  H        10.5705315906        1.2138134728        9.6021097978
  C        11.4317637381        3.0264242244       10.3889057555
  S         8.7839123122        6.8154808888        9.4808982026
  C         8.3065665596        6.0241744612       10.9936490235
  H         8.2376892122        3.9128444106       11.6316843442
  C         9.9546642610        5.3509021795        6.3834220731
  H        10.4071308363        1.6568989604        6.7168337040
  C        10.4789271263        3.2732864321        5.5280450598
  H        11.0458651775        3.9948259198       10.5945012558
  H        12.1007180956        3.0044405494        9.4810693345
  C        12.2381185423        2.4422946973       11.5398777318
  C         7.9673271595        6.7143781879       12.3005278621
  C        10.4395533755        4.6201925327        5.2974800963
  H         9.8756595587        6.4280566012        6.3003891606
  C        10.7732120929        2.7345550641        4.2678953961
  H        13.2778650154        2.6686780884       11.3742196212
  H        12.1371865392        1.3661134254       11.5039683846
  C        11.8598708555        2.9382675372       12.9267832144
  C         7.8651417418        8.1021756251       12.4468758170
  C         7.7794945439        5.8831636120       13.5970523203
  C        10.9427449447        5.1468480802        3.9671664969
  C        11.0945416852        3.7429143806        3.3673371524
  S        10.9415497933        1.1911491456        3.4899158053
  H        12.4241771944        3.8398923853       12.8898804922
  H        10.7987094083        3.3279288578       12.8936603020
  C        12.0218234067        1.9639970727       14.1180428782
  N         8.0042156182        9.0726893990       11.4120404891
  C         7.3864617026        8.6404136753       13.5900993463
  C         7.3264774509        6.4175017399       14.7426945770
  H         7.7261785201        4.8229511245       13.4590559357
  C        12.3136954743        5.8514816303        4.0960836112
  C         9.8769294102        5.9973255662        3.1693120011
  C        11.4374570893        3.2895223840        2.0944474675
  C        11.4649634681        1.9522823379        2.0859425227
  H        12.7457005638        1.2103369417       13.8684553539
  H        11.0313844092        1.5108930480       14.1669915632
  C        12.4675013767        2.6614340567       15.4596365278
  S         7.8176336312       10.4865431760       12.1542817317
  N         7.4695860934       10.0530841082       13.6305997688
  C         7.1668330213        7.9469932976       14.8194629562
  H         6.9954045990        5.8029642676       15.5304475342
  H        12.1433754792        6.7137634228        4.7443120465
  H        12.5813913352        6.3276171643        3.1499872067
  C        13.4947345788        4.9915855384        4.5869641723
  H         9.5738182056        6.8974323074        3.7806490694
  H        10.2626239296        6.3022179869        2.2586493840
  C         8.5941348707        5.2030991315        2.7364046242
  H        11.6533016110        3.9855790867        1.3390215629
  C        11.8087048271        1.1636584194        0.8673575654
  H        13.5366597773        2.9306883321       15.4626458670
  H        11.8001828341        3.5157251925       15.6741802007
  C        12.3241946820        1.7510809722       16.6383682144
  C         6.8876464496        8.6731947553       15.9774526200
  H        13.2424822982        4.3776605294        5.4880995821
  H        13.7625495075        4.1983760090        3.9077053408
  C        14.7137928910        5.8567400467        4.9286067810
  H         8.2437009011        4.5549983031        3.5468404698
  H         8.8407415706        4.6115292224        1.8905000056
  C         7.5136513286        6.1901190013        2.4543522326
  C        11.9074986866       -0.2632584888        0.8139139369
  C        11.9732852434        1.8921697493       -0.4441879578
  H        13.0304534778        0.8982666186       16.4103194196
  H        11.2743441663        1.2196004176       16.6304631441
  C        12.6955997257        2.3021505348       18.0253541605
  H         6.7773706781        9.7163853760       15.8814503813
  C         6.6651902416        8.2110280636       17.2843350742
  H        14.3126386041        6.6614207236        5.5266994730
  H        15.1824433774        6.2249031081        4.0219887510
  C        15.7726677804        4.9655066871        5.5782761471
  H         7.2073400995        6.6910034699        3.3204417506
  H         7.9001221505        6.9752001497        1.8082079463
  C         6.2867586371        5.4484476335        1.9595797361
  N        11.6679143832       -1.0867937939        1.8609201668
  C        12.2069630703       -0.9267128654       -0.3696306673
  C        12.2587908151        1.2158734617       -1.6324140598
  H        12.0755574801        2.9772096405       -0.5211549129
  H        12.3615075412        3.2939333904       18.2448103334
  H        13.8129202987        2.1597677910       18.0570772136
  H        12.3125295298        1.7319321761       18.8270058712
  S         6.5380311718        6.5709248699       17.8801811160
  C         6.4462228949        9.1799546862       18.3668532192
  H        15.4268473390        4.6505884678        6.5725660584
  H        15.8330798574        4.0875585210        5.0162493477
  C        17.1588324817        5.6715156237        5.8809087432
  H         5.8391540229        4.9478536799        2.7717569920
  H         6.7333891875        4.7099170702        1.3668299404
  C         5.2619634530        6.2121276523        1.1824667307
  S        11.8881669610       -2.6414037641        1.3602258931
  N        12.2477869582       -2.3433508708       -0.1809147124
  C        12.4047627945       -0.2426038556       -1.6101359636
  H        12.3642968061        1.7343001044       -2.5672460452
  C         6.1705416995        7.2279236938       19.4375977265
  N         6.1196242530        8.5770935568       19.5481628582
  O         6.6040059505       10.4015947803       18.2180595913
  H        17.7517282385        5.4926135685        4.9864105057
  H        17.1856961715        6.7132291336        6.0478794907
  C        17.8764531040        4.9416439649        7.0603517707
  H         5.7862351051        6.7129174917        0.3789446561
  H         4.6445885844        5.3149471911        0.8140841400
  C         4.3506408538        7.1122375941        1.9830573128
  C        12.7352814389       -0.9877497745       -2.7682035080
  S         5.7604578285        6.2627933690       20.8699666072
  C         6.0220728449        9.2957213174       20.8220384829
  H        17.2071506124        4.5722580402        7.8716288188
  H        18.4377600436        4.0859951472        6.5842271867
  C        19.0283154432        5.7296086810        7.7068759825
  H         4.7645219308        7.3439197064        2.9865302291
  H         3.3900690055        6.6866652054        2.1978450859
  C         4.1900233387        8.4969031114        1.2090981355
  H        12.2859039199       -1.9333066099       -2.7587882794
  C        13.1945418651       -0.6533172814       -4.0093068051
  H         5.1621838685        9.0409892321       21.4094677550
  H         5.7344595487       10.3767416723       20.5699841551
  C         7.2587887734        9.3194448943       21.7278415562
  H        19.2994963799        5.0739357129        8.5873159475
  H        18.7394327243        6.7158157274        8.1062873920
  C        20.1549375943        5.8940878150        6.6324726518
  H         5.2387193128        8.9710502692        1.1572979529
  H         3.9576971976        8.1438617658        0.2057045535
  C         3.0775971496        9.3599439846        1.7721119320
  S        13.8198675086        0.8330204985       -4.5523171406
  C        13.2828164022       -1.6993931201       -5.0746094857
  H         7.4858500053        8.3306282393       22.0129139480
  H         7.0114504581        9.8876202231       22.6083309122
  H         8.1306534569        9.7736826355       21.2088902740
  H        20.6606201546        5.0171709696        6.3644340048
  H        19.7617900782        6.3804959681        5.7953247044
  H        20.9649930922        6.4844751252        7.0902870380
  H         3.0236848669        9.2050137109        2.8755596788
  H         3.3051396454       10.3854727118        1.5218122667
  H         2.0548132107        9.1957917372        1.3633782377
  C        13.9730608561        0.1436212349       -6.1662828968
  N        13.8338535991       -1.1869179688       -6.2051210409
  O        13.0708177998       -2.8142534356       -4.8178138394
  S        14.4708012552        0.8962522187       -7.7088184219
  C        13.9590202609       -2.0447203607       -7.3936915093
  H        14.0336259194       -3.1114326405       -7.0778761176
  H        14.8154963605       -1.9843564777       -7.9720803261
  C        12.6461116970       -1.9592111682       -8.2823989298
  H        12.5000060664       -2.8306075986       -8.8668885604
  H        12.7214330669       -1.1161743778       -8.9825835662
  H        11.7509623489       -1.8372122668       -7.6459207460
  H        -1.3346530297       13.1830979532       17.0760273953
  C        -1.4149177945       14.0811336828       16.5548327896
  H        -0.4048527457       14.4684259477       16.2778076290
  C        -2.1321739738       14.9303200592       17.6127254865
  C        -2.1998122027       14.1127199967       15.2560717841
  C        -2.8953350922       14.0478286711       18.6854137675
  H        -1.4556450410       15.5751080719       18.2197415348
  H        -2.8802949967       15.7114523137       17.2255027169
  H        -2.7519228125       15.0281788765       15.1849231475
  H        -1.4601046019       13.9508132076       14.4066169358
  H        -2.9632506241       13.3722613135       15.2943430745
  C        -1.9799036053       13.1435163429       19.5392002704
  H        -3.5897541495       13.3261462266       18.1542583868
  H        -3.4913673084       14.6895391559       19.3648542004
  C        -2.2805409618       13.4372128016       21.0405154953
  H        -2.1089978641       12.0985257010       19.2061146882
  H        -0.9853386533       13.3574450720       19.3536028331
  C        -1.3242471336       12.7694244343       22.0966987095
  H        -3.3032725800       12.9505381426       21.2952101128
  H        -2.3031931007       14.5111418701       21.3203489122
  C        -0.0612996373       13.6712359002       22.3452942215
  H        -1.7692477875       12.4606314352       23.0302977639
  H        -0.9877449181       11.8560501289       21.7342665332
  C         1.1017592207       12.9203978031       23.0202510520
  H         0.2509125960       13.9753149308       21.4121863638
  H        -0.2489111987       14.5571931359       23.0165364799
  C         1.4403812430       11.6178983858       22.3062135806
  C         0.6465665296       12.1915143045       24.2248489752
  C         2.2383219046       13.9121613581       23.2501976669
  C         1.2176829443       10.5003256836       23.0580942606
  C         1.9403232827       11.2679259589       21.0298951208
  C         0.7745284098       10.8627217227       24.3012407771
  C         0.1997029447       12.7529469555       25.4221175892
  H         2.4637548844       14.2739357089       22.2201625974
  H         2.0618792464       14.7629064898       23.8725516976
  C         3.4915631919       13.3516779666       23.9165608902
  S         1.5765540659        8.9910585737       22.3034091005
  C         2.0057505203        9.9325015936       20.9027938601
  H         2.1844359318       12.0378837599       20.3422122152
  C         0.4873460586       10.1797574243       25.4619284253
  H         0.1342165421       13.8312144180       25.4162061592
  C         0.0133145092       12.1006683495       26.6352130612
  H         3.8814357528       12.6870373401       23.1818126178
  H         3.3143215980       12.7638335548       24.8532830566
  C         4.5950011402       14.3793813704       24.2314781505
  C         2.5601171495        9.4125170417       19.5648280411
  C         0.1504302739       10.7571319987       26.7316330896
  H         0.4994754642        9.0955224181       25.4233081871
  C        -0.3515080860       12.4982490188       27.9212330418
  H         5.4131998740       14.0530116192       24.8942949246
  H         4.2014137980       15.2606423594       24.7667349493
  C         5.2146361230       14.9788355744       22.9685784550
  C         2.7150996776        8.0442435133       19.2634501525
  C         2.7537374126       10.2984611357       18.3560057558
  C        -0.1318482511       10.0633037362       27.9801336423
  C        -0.4664712224       11.3788598078       28.6983853815
  S        -0.7265718059       13.9969540912       28.6785061086
  H         5.6619677723       15.8874137208       23.3134690202
  H         4.3873336186       15.4380616412       22.3732576317
  C         6.0558882773       14.0310049633       22.0731145847
  N         2.5759133392        7.0547336775       20.1719841939
  C         2.9219129110        7.5018981122       17.9769204797
  C         3.2127927164        9.7296588129       17.1654101146
  H         2.4326437920       11.3268885040       18.3122551785
  C         1.2094500866        9.4072617438       28.4887919127
  C        -1.3123152332        9.1337047221       27.9487104392
  C        -0.8705551957       11.7365076694       29.9964026253
  C        -1.0491672521       13.0997423492       30.1906166490
  H         7.1041573964       14.3977103277       22.1181413857
  H         5.9323020562       13.0358152853       22.5695430547
  C         5.4065897259       14.0144823416       20.6973834922
  S         2.6784076200        5.6038683579       19.4252707882
  N         2.9727593330        6.1460814761       17.9085812399
  C         3.3017907716        8.3012385380       16.8765853440
  H         3.3612024587       10.4368523429       16.4049321615
  H         1.8426200343        8.9361880388       27.6320311035
  H         1.0261951940        8.5927113488       29.1910481744
  C         2.0479788749       10.3739130377       29.3782074549
  H        -1.0415497857        8.2513217675       27.3604020988
  H        -1.4352322780        8.7789628259       28.9812411917
  C        -2.5637732702        9.7694734088       27.4718949404
  H        -0.9060322735       10.9994656993       30.7217850222
  C        -1.4838463730       13.7970739340       31.4732949209
  H         5.4381316373       15.0233747433       20.3251917720
  H         4.4005268096       13.5444499620       20.7938600879
  C         6.2073347613       13.2099755049       19.7956286475
  C         3.6736438522        7.6233740415       15.6574591401
  H         2.1978466652       11.3924373095       29.0120949092
  H         1.4783343223       10.5470934091       30.2540496242
  C         3.3793942217        9.7182291458       29.8348745256
  H        -2.4690103950       10.0939658666       26.4011634937
  H        -2.7812673486       10.5850885548       28.1154157972
  C        -3.7311709964        8.8045002495       27.5886384880
  C        -1.5479967428       15.1988200696       31.7013551172
  C        -1.7918280948       12.9572828156       32.6933779417
  H         6.6944477545       12.4826722594       20.3768815786
  H         5.6507250738       12.6385842788       19.0691672784
  C         7.2646256441       14.0697899304       18.9843164496
  H         3.3865454314        6.5950270036       15.5560428255
  C         3.9433267887        8.1851272826       14.3964837132
  H         3.8444956491        9.3333233092       28.9077619151
  H         3.2470606233        8.8964820880       30.5246500116
  C         4.2772716116       10.7463962331       30.5246235229
  H        -3.5087703473        7.9801855666       26.9520829652
  H        -3.7685009918        8.3680655055       28.6098443824
  C        -5.0827851950        9.4239995720       27.3293482445
  N        -1.2705170358       16.0801114928       30.6981678649
  C        -1.8037196698       15.8029224459       32.9216909793
  C        -2.0657541637       13.5217461450       33.9442820377
  H        -1.9752838109       11.8923069724       32.5759414249
  H         8.1974848587       13.9040127169       19.5668406926
  H         7.3063580312       13.6819278119       17.9309753466
  H         7.1143814064       15.1296432780       18.9152045782
  S         4.1214181975        9.7900967288       13.9867437584
  C         4.0068956160        7.2235732254       13.2779035722
  H         4.2457864266       11.6699353918       29.9050280152
  H         3.8231258442       11.0620033811       31.4641443709
  C         5.7894364759       10.3683608166       30.7197151255
  H        -4.9772404841       10.4012336248       27.7298601914
  H        -5.7683394521        8.8764469824       27.9121232834
  C        -5.5272515694        9.5475349873       25.8822277004
  S        -1.4571632214       17.6004043748       31.3662094276
  N        -1.9302841217       17.1679912794       32.8308855033
  C        -2.0348482298       15.0337947011       34.1143174561
  H        -2.2472629703       12.9301530256       34.7762670749
  C         4.0263780504        9.2494495532       12.2792813372
  N         4.2424083876        7.8843007755       12.1462583285
  O         3.8438543779        6.0043958810       13.3858471158
  H         6.2421914985       11.2563141429       31.2092706663
  H         6.2774749829       10.2412340584       29.7494902257
  C         6.0315527911        9.0337094782       31.4922280620
  H        -4.8490198104       10.1460806620       25.3077168067
  H        -5.5751949500        8.5956858530       25.2800302800
  C        -6.8695210357       10.3252752860       25.7938855804
  C        -2.4447227057       15.6305874722       35.3087219885
  S         4.4951847703       10.2815369373       10.8676286482
  C         4.4955883128        7.1980736745       10.9385680578
  H         6.8202928365        9.2172374826       32.2493895288
  H         5.1970512934        8.7385352396       32.1060272835
  C         6.5201049396        7.8498640019       30.6837549205
  H        -6.9455003535       10.6589318089       24.7730917486
  H        -6.8557742718       11.2859215597       26.4155291003
  C        -8.1688819179        9.5530965207       26.0592814364
  H        -2.2302323474       16.7202288466       35.3472525466
  C        -3.0051003489       15.1166041051       36.4622382342
  H         5.1204566066        7.6371618433       10.1575718607
  H         5.0242319811        6.2190112511       11.1325570941
  C         3.1354474694        6.8591351117       10.3077496432
  H         7.2593716399        8.2077717747       29.9131318134
  H         5.7163414133        7.3904663531       30.0721199156
  C         7.1061702404        6.7527449951       31.6016475838
  H        -8.2931624305        8.6306779503       25.5059288181
  H        -8.1592087840        9.2459819555       27.0894010964
  C        -9.3810700675       10.4180765553       25.6673461494
  S        -3.6083754487       13.5704046663       36.7410936879
  C        -3.3858725070       16.1420490243       37.4933428780
  H         3.4274482572        6.2125385433        9.5032095860
  H         2.5682022425        6.1964734397       10.9870630564
  H         2.5313650078        7.7745975470       10.1300664267
  H         6.3005289085        6.1674852852       32.0998505292
  H         7.7557068669        7.0786666455       32.4022300282
  H         7.7343845429        6.0990867814       30.8889284687
  H        -9.4293627316       11.3201665702       26.2932965268
  H       -10.2794105800        9.8331401111       25.7500464139
  H        -9.2616252508       10.7608157334       24.6242352452
  C        -4.2978325778       14.2218851417       38.2760411935
  N        -4.0888327596       15.5253158689       38.4898643189
  O        -2.8970299157       17.2774424187       37.5615671298
  S        -4.8876172636       13.2026420443       39.5430060571
  C        -4.3433802097       16.2056554951       39.7433748357
  H        -4.3813099429       17.2728142480       39.5213987408
  H        -5.3486127650       15.8470328661       40.1207703086
  C        -3.3517943643       15.8562362908       40.8506755519
  H        -3.1770835413       16.7146117565       41.4795028550
  H        -3.6393710929       15.0592767696       41.5183996296
  H        -2.3092234033       15.6559369666       40.4230096080
