352
i=
  H         4.7503012887        1.5861523622       12.5135539071
  C         4.0588215625        2.4419317839       12.7727510102
  H         4.6801997953        3.3027758386       12.8543870753
  C         3.0183135073        2.6003560317       11.6378228821
  C         3.3841010304        2.0675830406       14.1068643594
  C         3.5326718053        3.0617386541       10.2727046867
  H         2.2755065786        3.3434262544       11.8893600415
  H         2.5188934109        1.6638646608       11.5546856932
  H         4.0291425641        1.4762850792       14.7649030718
  H         2.3607701601        1.5376889737       13.8648962217
  H         3.1142767190        3.0533094882       14.5845001115
  C         4.1833421214        1.8742320905        9.5078257924
  H         2.7566078947        3.6124477499        9.7881649403
  H         4.2576265098        3.8126139836       10.4847348828
  C         4.9800554766        2.2328005710        8.2690745141
  H         3.3349982480        1.2642479977        9.2304838453
  H         4.8310940076        1.3471317437       10.2178477858
  C         6.2337083200        3.0711439742        8.3793227172
  H         4.2258725008        2.8041648976        7.7208413912
  H         5.1135929634        1.3904550358        7.5233081681
  C         7.3893875000        2.2162164395        8.7536597748
  H         6.3638550743        3.4676073060        7.3656487426
  H         6.0535807954        3.8506961950        9.0813850750
  C         8.7796240090        2.9256123024        9.0280940663
  H         7.3794702655        1.4689019122        7.9250419846
  H         7.1175714921        1.8226272070        9.7517313395
  C         8.5580108889        4.3049414869        9.7436699194
  C         9.2559571030        3.6431465427        7.8163183810
  C         9.7720225392        2.1317241669        9.8261794772
  C         8.7737900844        5.3460887358        8.9173008639
  C         8.0566286315        4.6709390814       11.0391961023
  C         9.1969989800        4.9681738194        7.6583367601
  C         9.6820260389        3.0257786244        6.6711138589
  H         9.2026941128        1.7842684907       10.7019273015
  H        10.2346114694        1.2807847983        9.3437706193
  C        11.0106318244        2.9452768122       10.2473171263
  S         8.3880554442        6.8442622210        9.6679326542
  C         7.9370699865        6.0178837098       11.1497135320
  H         7.7755712252        3.8539116558       11.7076357971
  C         9.5214673707        5.6417458546        6.5065542535
  H         9.8942251603        2.0051299454        6.7184116914
  C        10.1284170709        3.6263430016        5.5329560302
  H        10.6562968059        3.9305174503       10.5865708683
  H        11.6045310593        3.1372514689        9.2885702139
  C        11.8224613727        2.4666586912       11.4727907960
  C         7.5269196092        6.6832862108       12.4574579184
  C        10.0585092179        4.9841634303        5.3812696224
  H         9.4324127299        6.6798895014        6.4493574518
  C        10.5614984602        3.1524483173        4.2990969271
  H        12.7318790489        3.0418171072       11.5407704636
  H        12.1660437094        1.5325303919       11.3455181633
  C        11.0494462066        2.4227764900       12.8169725463
  C         7.5759316207        8.0439740551       12.7542517721
  C         7.1443610007        5.8945518130       13.6330010610
  C        10.5672534399        5.6046114144        4.1475435059
  C        10.8723088685        4.2466719680        3.5086949864
  S        10.9058388342        1.6494280420        3.6565886423
  H        10.8177000462        3.4068341712       13.1362520922
  H        10.0379004617        1.9220286102       12.8637514118
  C        11.8677284553        1.7604220978       13.9966708110
  N         7.6518368376        8.9838680373       11.7592401971
  C         7.3277485140        8.6241314241       14.0077325323
  C         6.9470316991        6.4609587527       14.9225905940
  H         6.9174253207        4.8651221177       13.3899846465
  C        11.9569401759        6.2660873661        4.3057738679
  C         9.4430243012        6.3588630073        3.3232602753
  C        11.2879255063        3.7924208166        2.2136930097
  C        11.3988293074        2.3897785987        2.1421818495
  H        12.8453101562        1.9764493932       13.7643636235
  H        11.8153779243        0.6521884123       13.9115354018
  C        11.6131616058        2.4202174041       15.3924686188
  S         7.6742572941       10.4738992331       12.3937668492
  N         7.4682078472       10.0250445187       13.9453675376
  C         7.0438493062        7.9295523529       15.1634593588
  H         6.4607057864        5.8386126678       15.6824001221
  H        11.8261208109        7.2596872757        4.4942139927
  H        12.4603858477        6.2089175600        3.3598849096
  C        12.8833938144        5.6155592538        5.3225178993
  H         8.8695616765        6.7775017409        4.1275977565
  H         9.8312655573        7.1734669628        2.7584687135
  C         8.4818473531        5.5772713151        2.4251755444
  H        11.4719925037        4.5803007389        1.4761860448
  C        11.6790943068        1.6001552088        0.8928014269
  H        11.5705424016        3.5314783176       15.4076029273
  H        10.5957449250        2.2651938547       15.7347787752
  C        12.5778267269        1.9014327288       16.4170425704
  C         6.9537503305        8.5762130470       16.4461471210
  H        12.3679880824        5.5610735055        6.3099938657
  H        13.1000757071        4.6036688226        5.0822781615
  C        14.2039169015        6.2749323320        5.5247688597
  H         8.0290061029        4.8831042666        3.1029666967
  H         9.0179998015        4.9887302345        1.6587024590
  C         7.4851236135        6.5499657464        1.8053844399
  C        11.5452140458        0.1956514395        0.7196718689
  C        11.9415968332        2.3476413583       -0.3564556790
  H        13.5102571267        1.5901480443       15.9006746081
  H        12.1570190637        0.9520589215       16.8413171731
  C        12.8387393805        2.6626035431       17.7246117921
  H         7.1480916474        9.6334265171       16.3793458364
  C         6.5600983504        8.1291278376       17.6862350601
  H        14.0381515639        6.9793248784        6.3228483369
  H        14.5006782070        6.8587537976        4.6687824836
  C        15.2634061385        5.3545636442        5.9383808624
  H         7.1914156399        7.3163237625        2.5582847142
  H         7.9852262513        7.1574739251        1.0802210194
  C         6.1488989699        5.8489935621        1.3797041880
  N        11.1954174586       -0.8310250554        1.6908872759
  C        11.7258963021       -0.3754616513       -0.4949902706
  C        12.2082568852        1.7267918809       -1.5827366084
  H        12.1016150391        3.4480053654       -0.3128853399
  H        13.3866236959        3.5296050556       17.5375031388
  H        13.3595566326        2.0198713689       18.4562481804
  H        11.8970336837        2.7874174462       18.2584443129
  S         6.1125081892        6.5057376400       18.1220717339
  C         6.5590081686        9.1836060955       18.7474941009
  H        14.8551112795        4.8565975084        6.7998202955
  H        15.4125373453        4.5043933721        5.1963331784
  C        16.5784253719        5.9516108806        6.3216228212
  H         5.8904115690        4.9960503984        2.0762684484
  H         6.3973075828        5.2015313002        0.5313927814
  C         4.9517611802        6.7342432262        1.0923010199
  S        11.3317057621       -2.3153585947        1.0278532487
  N        11.6326855672       -1.8008846442       -0.4958897957
  C        12.0890711257        0.2474578877       -1.6714853611
  H        12.6003338735        2.3021154317       -2.3891769358
  C         5.9568851978        7.2301073627       19.7238087270
  N         6.0175303759        8.5774934350       19.7973265113
  O         6.7478509128       10.3987942820       18.5863335804
  H        17.3106068413        6.0393577743        5.4786266963
  H        16.3472085839        6.9092614615        6.6814905325
  C        17.2684804960        5.2108778431        7.4569932489
  H         5.0560329048        7.4772006509        0.3417511236
  H         4.2019254270        6.0378121903        0.7368177326
  C         4.4620641682        7.5561905544        2.2712812806
  C        12.4160120724       -0.5249758908       -2.8894600642
  S         5.2721950310        6.3578392756       21.0306828104
  C         5.9231702709        9.2815921251       21.0824235389
  H        16.5762294229        5.1148800346        8.3626568397
  H        17.4864404775        4.2516677189        7.0443828254
  C        18.5905037154        5.8948438742        7.7742550203
  H         5.3404031015        8.0508943820        2.7356126595
  H         4.1236490113        6.7475646972        2.9577483025
  C         3.2914153667        8.5351648398        2.0793320731
  H        12.1837602614       -1.5484689975       -2.7704902865
  C        12.7855576855       -0.1986146123       -4.1422053550
  H         5.0254684127        9.0260436997       21.6456765761
  H         5.7902190938       10.3595767154       20.8475579272
  C         7.3070330632        9.2110065526       21.8302694845
  H        19.0068895687        5.4547855474        8.6898947015
  H        18.3962891388        6.9191432584        7.9673299675
  C        19.6285146201        5.8236844490        6.6323807435
  H         2.4584217914        8.1196664903        1.5723871889
  H         2.9499516143        8.8250769784        3.0331732296
  C         3.7494744196        9.8421687342        1.3435242566
  S        13.1422990604        1.4064245945       -4.7231263147
  C        12.9982940639       -1.2997213849       -5.0900537740
  H         8.2564645962        9.4631440601       21.1990247388
  H         7.3577204571        8.2461575174       22.1816091263
  H         7.3825483342        9.8501023309       22.7277073845
  H        20.6188693227        5.9612197915        7.0561053868
  H        19.6035130887        4.8712309105        6.0708178606
  H        19.4767172670        6.6951489490        5.9983128948
  H         2.9608452040       10.5846591585        1.3417731130
  H         4.6386219017       10.3299692020        1.8272172363
  H         3.8675826056        9.5795104570        0.2491021586
  C        13.6589614195        0.5719312573       -6.2081754448
  N        13.4655895145       -0.7419532563       -6.2418445287
  O        12.6348401039       -2.4347224732       -4.8974373696
  S        14.3073937401        1.3368573478       -7.5811586337
  C        13.6886963582       -1.6272127273       -7.4220711476
  H        13.9785581467       -2.6350732527       -7.0971354000
  H        14.5939660923       -1.3029833110       -8.0451316544
  C        12.5366790262       -1.6974799903       -8.3554024505
  H        12.9912238609       -2.1697390622       -9.2121226700
  H        12.1803055964       -0.7054290274       -8.6347475423
  H        11.7644664454       -2.2874050268       -7.8904092918
  H        -3.8301336361       12.9558591530       16.0576002805
  C        -2.8732076480       13.4050937569       16.1007603201
  H        -2.1590094615       12.6605463542       16.5277353324
  C        -2.9822269906       14.6040305308       17.0497392792
  C        -2.4067109141       13.8344129839       14.7151253491
  C        -3.4365237083       14.3462925365       18.5335758837
  H        -2.0271073078       15.1154803460       17.0291401522
  H        -3.6785358635       15.3493411595       16.6357118854
  H        -2.5588810840       13.0542083046       14.0374726284
  H        -3.0748836365       14.5699059588       14.2751657312
  H        -1.3719000837       14.0777402596       14.6367257341
  C        -2.1854451004       14.2657175351       19.4490328367
  H        -4.0303922443       13.4322333540       18.5173031828
  H        -4.0025227124       15.1702194338       18.8609147119
  C        -2.4808963663       13.6562970457       20.8713155357
  H        -1.3921102660       13.6728158395       18.9427732855
  H        -1.9057633765       15.2551145502       19.6485605295
  C        -1.2429470095       12.9939973501       21.5710491566
  H        -3.2113937400       12.9062137293       20.8431352400
  H        -2.7360949187       14.4041013433       21.6288738431
  C        -0.2902075106       14.0214318496       22.3268863460
  H        -1.6342354741       12.2834853321       22.3058743649
  H        -0.6477577674       12.4277070712       20.8864060745
  C         0.8798156186       13.3764010625       23.0356913363
  H         0.0390734754       14.6458769799       21.3946500422
  H        -0.7393155763       14.6289371346       23.0407917601
  C         1.2509982961       12.0596374281       22.3205634574
  C         0.4283162560       12.5322034104       24.2905907275
  C         2.0552981444       14.4070113141       23.3302294392
  C         0.9203792647       10.9325638810       23.0693304507
  C         1.9584884529       11.7131591579       21.1488087278
  C         0.4264824253       11.2003555167       24.3235837447
  C         0.0353604822       13.1127317860       25.5394136428
  H         2.2470589335       14.9326189031       22.4107728231
  H         1.7530493534       15.0207780196       24.0636023569
  C         3.3195475664       13.7382152041       23.7776233526
  S         1.2708519297        9.4639489981       22.2427315723
  C         2.0195070804       10.3195909136       20.9833308036
  H         2.4013310481       12.4951695129       20.5524319698
  C         0.0471896463       10.5164071153       25.4603212599
  H         0.0156944382       14.2222228307       25.6200677170
  C        -0.3294851002       12.3801003822       26.6419941134
  H         3.3488517134       12.7900871967       23.2155545284
  H         3.0467318220       13.5875849690       24.8510818896
  C         4.5067374494       14.5875247472       23.8479987141
  C         2.5677268009        9.6068032614       19.7703533105
  C        -0.2497978732       11.0490753215       26.6716557470
  H         0.0963437292        9.4917690675       25.3221905696
  C        -0.6912999472       12.7820873057       27.9462705435
  H         5.2361614156       14.1806053577       24.5565490598
  H         4.2970919707       15.5902124124       24.1218370665
  C         5.2197308081       14.8514655613       22.5223166778
  C         2.5715779343        8.2388443504       19.6247869590
  C         2.8896909007       10.4521469154       18.5284419918
  C        -0.6453584779       10.3024691759       27.9396193829
  C        -0.9756024117       11.6345852852       28.6761114573
  S        -0.8218330897       14.3711767922       28.6986719506
  H         5.6198059546       15.8257323846       22.6719747277
  H         4.4854455833       14.9221040220       21.6607951587
  C         6.3949332995       13.9653698488       22.1444493967
  N         2.2004440703        7.2802802957       20.6199436095
  C         2.7154934681        7.5815224630       18.4283184862
  C         3.2173405124        9.7497052264       17.3614048993
  H         3.1014405604       11.5238174645       18.6402957585
  C         0.4564405312        9.4996711558       28.5864937309
  C        -1.8938182810        9.3490712494       27.7539953711
  C        -1.3571978995       12.0697473069       29.9280348443
  C        -1.3776075009       13.4835067943       30.0879042176
  H         7.2729114017       14.6602291950       21.9752787053
  H         6.5585752146       13.2660687210       23.0023685397
  C         6.1780969714       13.1706331660       20.8530969361
  S         2.0094219922        5.8037209738       19.9269412679
  N         2.5822795035        6.2007982696       18.4639148311
  C         3.2043729407        8.2698602264       17.2980753257
  H         3.5549760462       10.3057083272       16.4831619566
  H         0.9308861475        8.7971336709       27.8742853860
  H         0.0194244645        8.8571637506       29.4264193082
  C         1.5359348958       10.4230379252       29.0711788802
  H        -1.7594681752        8.5194417669       26.9917129751
  H        -2.1324616970        8.8300695656       28.6354124464
  C        -3.1955202583       10.0691820635       27.3818659468
  H        -1.8003134182       11.4013266877       30.6566833158
  C        -1.6721417682       14.2153358731       31.3978034869
  H         5.0951132868       12.7657471419       20.8357144046
  H         6.7503486508       12.2788375109       20.9677723987
  C         6.4565676313       13.8999228675       19.5331146218
  C         3.4512108869        7.4680377232       16.1231430539
  H         1.7251657609       10.9838776518       28.2089362986
  H         1.2591180487       10.9631008552       29.9890617940
  C         2.8928431786        9.6984735121       29.2977316143
  H        -3.0937671596       10.4036873398       26.3237527721
  H        -3.3547123920       10.9422557724       28.0433183224
  C        -4.3546294516        9.1552552291       27.5007580736
  C        -1.8060563203       15.5910610796       31.5031143681
  C        -1.8306237905       13.4585565846       32.6897471460
  H         5.9213727043       13.4692443996       18.7323063871
  H         6.1578873668       14.9426740419       19.5996494250
  C         7.8570083301       13.9696724091       19.1071997256
  H         3.4648560314        6.4222630139       16.2471419620
  C         3.8148689588        7.7484831262       14.8136925444
  H         3.2826325513        9.0677188935       28.4567001127
  H         2.6748083014        8.9474196419       30.0320384833
  C         3.9853653169       10.5563316542       29.9029613670
  H        -4.2182689374        8.2200300657       26.8738334708
  H        -4.3600358008        8.8663110259       28.5788923866
  C        -5.6877704406        9.8022141188       27.2704004418
  N        -1.5644155982       16.5048988038       30.4525834866
  C        -2.0010575642       16.2234184234       32.7202865152
  C        -2.1064673849       14.1097036132       33.8312265401
  H        -1.7594718555       12.3128971539       32.7377410375
  H         8.0358742243       14.9357150373       18.6648295643
  H         8.5430592480       13.7577024875       19.9119416371
  H         7.8896363867       13.1912288582       18.3501244123
  S         4.0290427898        9.3944504911       14.1966619257
  C         3.9333384402        6.6302883015       13.8911506173
  H         4.1909314466       11.2620694111       29.1168051183
  H         3.7718469506       11.1196320777       30.8348558636
  C         5.2706348263        9.7836992723       29.9248078334
  H        -5.7404774168       10.7621930418       27.7978978782
  H        -6.5333202107        9.2658216247       27.6328051410
  C        -5.9049374645        9.9115817772       25.7778398887
  S        -1.7655202004       17.9907638355       31.1279690177
  N        -1.9752094619       17.6484842395       32.6571077048
  C        -2.3057174540       15.5484283792       33.8749114808
  H        -2.1608332603       13.4605073482       34.6880317646
  C         4.4340359801        8.5195721799       12.7250535376
  N         4.2250721894        7.1935507520       12.6990178540
  O         3.5514887364        5.5235126040       14.1401438848
  H         6.1005059187       10.4742192771       30.3045771209
  H         5.5038761633        9.4854064005       28.9288485695
  C         5.2028335486        8.7140971139       30.9910039749
  H        -5.1331791586       10.5578637077       25.2640684424
  H        -5.9162363897        8.9107030244       25.2661647584
  C        -7.2374213270       10.7195460785       25.5367333522
  C        -2.7360667165       16.2898107409       35.0333426162
  S         4.4579544633        9.3111382242       11.0883368673
  C         3.9352483015        6.4855875661       11.4400924019
  H         6.2007744955        8.7586259085       31.4886051985
  H         4.4561846941        8.8760063185       31.7720375095
  C         5.0998645246        7.2397484875       30.4541512303
  H        -7.1302982276       11.1538086482       24.5006035738
  H        -7.2641473602       11.5848900408       26.2676219016
  C        -8.5596896412        9.9166516139       25.5568596112
  H        -2.6518363543       17.3484949578       34.9826470921
  C        -3.3646251798       15.9248020450       36.1860713950
  H         4.7364847857        6.6769503887       10.7824519322
  H         3.9598286707        5.4409291669       11.6289312696
  C         2.5139954383        6.8498038618       10.8774644668
  H         4.8686050028        7.1895282694       29.3697028687
  H         4.2794209439        6.7505429615       30.8648710622
  C         6.2366123941        6.3785404968       30.9380425677
  H        -8.9284724310        9.9098131996       24.5280137477
  H        -8.4205504158        8.9301683662       25.9300349371
  C        -9.5373107614       10.7229947785       26.4526790641
  S        -3.8118119071       14.2759163302       36.7244561923
  C        -3.5459787027       16.9701028069       37.1970931433
  H         2.4183436860        7.8372373941       10.4057697912
  H         2.2333698523        6.1450747146       10.2154363121
  H         1.8296020554        6.7553674468       11.7142398583
  H         6.2619674599        6.3016182613       32.0343440853
  H         7.1867787535        6.7763220991       30.5341489813
  H         6.2704564523        5.4024431087       30.5158147058
  H        -9.0636748564       10.7500536371       27.4359661907
  H       -10.5866926384       10.3983116679       26.3829351171
  H        -9.4227610592       11.7350914641       26.0424815150
  C        -4.3425419983       15.1145926977       38.2690469047
  N        -4.1023190258       16.4468725128       38.2755412109
  O        -3.1372252338       18.1793812252       37.0985904836
  S        -5.0390747457       14.3031762997       39.6415466442
  C        -4.1394457372       17.2523223780       39.4788493009
  H        -4.1812778514       18.2217135557       39.1237226847
  H        -5.0536183659       16.9649083348       40.0033168203
  C        -2.8142572083       17.1717501415       40.2776007296
  H        -2.6753219796       18.0898030359       40.8469581848
  H        -2.9678696545       16.4396706307       41.1576316849
  H        -1.9975135931       16.9613768191       39.5636570179
