352
i=
  H         4.4302897606        1.6416336759       12.5727334960
  C         3.7852089045        2.5078944339       12.6798500623
  H         4.4837537484        3.3354645481       12.7478735559
  C         2.8506150263        2.7358924067       11.4450653993
  C         2.9385102114        2.4501378649       13.9891612731
  C         3.6524760769        2.9414295985       10.1939445778
  H         2.1824819630        3.5724979499       11.5339585723
  H         2.1986468725        1.8667751097       11.3022663759
  H         2.1632338125        1.7135320289       13.8527699667
  H         2.6042469063        3.5169352211       14.2037542371
  H         3.7075417328        2.1638498825       14.7289716269
  C         4.2836026877        1.6760161207        9.5456304119
  H         3.0024372201        3.4174166265        9.5232958347
  H         4.3521878691        3.7327708383       10.3595374661
  C         4.9897190842        1.7539949871        8.2322484263
  H         3.6216374925        0.8382708600        9.3840382701
  H         5.0746949599        1.2999107341       10.2106681498
  C         6.2693083946        2.6274271977        8.1502826211
  H         4.3093631062        2.2247539990        7.4957618110
  H         5.1496913534        0.7298605326        7.7631214919
  C         7.5657438402        1.9607617194        8.7748016517
  H         6.4847785994        2.8453592257        7.1294595473
  H         6.0388678261        3.6092054637        8.7031409245
  C         8.9659932142        2.6849086790        8.8736835639
  H         7.6919418219        0.9493828140        8.2904079451
  H         7.4053617745        1.5123643181        9.7829981509
  C         8.5925312134        3.9472193299        9.5345123653
  C         9.5124255196        3.3506378684        7.6897112746
  C        10.0418709883        1.7782145780        9.5765781776
  C         8.9182677746        5.0711443026        8.8022413408
  C         7.9698868482        4.2687813384       10.7621644179
  C         9.4536032045        4.7148469267        7.5950266543
  C         9.9509478440        2.7250307540        6.5161555416
  H         9.6973880728        1.3759335730       10.4944561912
  H        10.1808881996        0.8384669360        8.9760557521
  C        11.4241213470        2.4625706208        9.8996139842
  S         8.7413328596        6.5024336877        9.6628752122
  C         8.0995329911        5.6223969043       10.9783385285
  H         7.5372342579        3.4646690467       11.4372762778
  C         9.8864095651        5.3174057451        6.4465418235
  H         9.7918476300        1.6831887953        6.6028633585
  C        10.2672614257        3.3391338751        5.3852362520
  H        11.1105538168        3.3634155816       10.3805344879
  H        11.9893036083        2.7301840204        8.9949017152
  C        12.4975721528        2.0204944151       10.9430624123
  C         7.7846311118        6.2480954425       12.2901411070
  C        10.3549360108        4.7116295845        5.3032389394
  H         9.7610682635        6.4039967237        6.4170319402
  C        10.6735722022        2.9021521730        4.1223441899
  H        13.2822992817        2.7325067198       10.8919184246
  H        13.0118176383        1.1011755388       10.6439480306
  C        11.8748735938        1.7952115098       12.2850263278
  C         7.7767918527        7.6150486555       12.4527682732
  C         7.3679544644        5.4223568491       13.4301189786
  C        10.7304589773        5.3575665775        4.0045906654
  C        10.9188042705        4.0188132984        3.2852597569
  S        10.8266566822        1.4312626810        3.2730130616
  H        11.5144116151        2.7049309369       12.5545873686
  H        11.1913311054        0.9404622681       12.3098708710
  C        12.9288925967        1.5402323544       13.4098177498
  N         8.0746442723        8.6378202260       11.5057682526
  C         7.3790983172        8.1499982537       13.6784988330
  C         6.9621224373        5.9763574281       14.6294414766
  H         7.3623071520        4.3305211107       13.3307850135
  C        12.0826052811        6.1556149924        4.1787238322
  C         9.6195662080        6.2515644986        3.3794042585
  C        11.2552425981        3.6475805281        1.9543671540
  C        11.2717593677        2.3065505215        1.8640054077
  H        13.8513616837        2.0031981100       13.4134812596
  H        13.2257068700        0.5311604079       13.3664278572
  C        12.2207467003        1.8602494856       14.6820327839
  S         7.9122897944       10.0896778010       12.2220613173
  N         7.5703150363        9.5769341367       13.7078619688
  C         6.9938304990        7.4106503187       14.8340439647
  H         6.6423907573        5.3440245127       15.4464281612
  H        11.9207159342        7.1083916050        4.6189106686
  H        12.6885681266        6.2421430400        3.2877631120
  C        13.0578508624        5.4141461227        5.1101527583
  H         9.2675486841        6.9653276015        4.1557121743
  H        10.0058628487        6.9880932109        2.6475526588
  C         8.4055964186        5.4770792772        2.8230966474
  H        11.4779154937        4.4072310166        1.2340842328
  C        11.6355390085        1.5853835685        0.5638056873
  H        12.0084582842        2.9385660725       14.8231163220
  H        11.2988937242        1.3385573259       14.6217220861
  C        13.0798373417        1.2832491749       15.8418715359
  C         6.6158940208        8.1398118525       16.0739804273
  H        12.6711507073        5.4405846146        6.1789682180
  H        13.3056205049        4.4167113078        4.7988857835
  C        14.4035887338        6.1290030879        5.2938238257
  H         8.0928161106        4.6543932622        3.4472264606
  H         8.6414219478        4.9880825981        1.8642687288
  C         7.2321645965        6.4211803934        2.5392841041
  C        11.7553034975        0.1731932051        0.3763348201
  C        12.0540076391        2.4053871082       -0.6162596270
  H        14.1573655033        1.5672272679       15.7203338032
  H        12.9936876774        0.2036094128       15.7781639610
  C        12.4412647799        1.6863348100       17.1085718351
  H         6.5919102086        9.1973466046       15.9551784603
  C         6.5011266872        7.7505569524       17.3730394444
  H        14.2180299916        6.9662825766        5.9497413057
  H        14.7001911524        6.5546247666        4.3219056337
  C        15.4800872215        5.1931702270        5.7355450325
  H         7.1367081354        6.9844896357        3.4507614772
  H         7.5243337528        7.0756649878        1.7434864655
  C         5.8716239977        5.7724579317        2.1486945541
  N        11.6275155750       -0.7075107364        1.4017909419
  C        11.9830412646       -0.4438595358       -0.8583376214
  C        12.3167935421        1.8151430996       -1.8493243424
  H        11.9418645781        3.4829399415       -0.5393602018
  H        12.4109270845        2.7329265720       17.4068924152
  H        13.0147896195        1.2411702690       17.9901195816
  H        11.4157597637        1.1919393132       17.0578862186
  S         6.4152557142        6.0734806834       18.0088393497
  C         6.2913681308        8.7544144057       18.4309118229
  H        15.2359843342        4.8125522978        6.7238323438
  H        15.5004193277        4.2904848820        5.1643001702
  C        16.8058827098        5.9309864600        5.7661960264
  H         5.4854999895        5.1232633200        2.9453926105
  H         6.1138256997        5.1629557800        1.3215595526
  C         4.8955704097        6.8460105454        1.5935338317
  S        12.0178417225       -2.1797721711        0.8274403004
  N        12.1604121112       -1.8104733753       -0.7392021092
  C        12.3283010298        0.3073742072       -2.0081574109
  H        12.4809949058        2.4086153866       -2.7879843638
  C         6.0013020440        6.7845765785       19.6041064290
  N         6.0620285789        8.1146513682       19.6302076020
  O         6.3539397452        9.9666990033       18.3048670907
  H        17.4034871536        5.6053905403        4.8835154864
  H        16.4846066934        6.9576823989        5.7823823862
  C        17.6942052309        5.3908386536        6.9549213136
  H         5.2974907652        7.0650274040        0.6191144453
  H         3.9471462340        6.3692104608        1.4605511406
  C         4.8406091206        8.0667912893        2.5176571806
  C        12.7226271979       -0.4590411294       -3.1515223821
  S         5.5784599281        5.8851237151       21.0446243597
  C         6.0107246515        8.8204649076       20.8639362712
  H        17.2666872929        5.5407506044        7.9802335614
  H        17.7422831955        4.3382947885        6.6976328556
  C        19.0925393530        5.9444416102        6.8326210481
  H         5.7688609439        8.7034145537        2.4266965907
  H         4.7071746852        7.7263609285        3.5469202914
  C         3.5096993105        8.8490456294        2.0965027087
  H        12.6360969393       -1.4820487289       -3.0295109192
  C        13.1980484812       -0.1234482160       -4.3852454788
  H         5.3229801229        8.3529739744       21.5130305505
  H         5.6482822349        9.8152080721       20.5446328800
  C         7.3565464716        9.1091567941       21.4822485295
  H        19.5428730812        6.0636790452        7.7756291522
  H        18.9183436741        6.9788103351        6.4344803718
  C        20.0511264946        5.1921202149        5.8654657311
  H         2.6646329568        8.1411600252        2.1291513433
  H         3.2016418953        9.7103662092        2.7599578214
  C         3.6694827756        9.4565086222        0.6397413186
  S        13.5037218580        1.4714216355       -4.9999334174
  C        13.3867054766       -1.2651459489       -5.3328144499
  H         7.9913857855        8.1698852596       21.4694871016
  H         7.1990682581        9.4231692687       22.4510187027
  H         7.9852936071        9.7609398686       20.8450922039
  H        20.9292026777        4.8654842491        6.3928226035
  H        19.5832037334        4.2391308407        5.3987611936
  H        20.4220069523        5.8250822794        5.0528735569
  H         3.2859726606       10.4396974402        0.5328420533
  H         4.7470516142        9.4983856727        0.3749776906
  H         3.1960565251        8.8684481435       -0.1335437739
  C        13.9000705402        0.5681965982       -6.4878940759
  N        13.7803625579       -0.7446043938       -6.5015162259
  O        13.0163567794       -2.4011086741       -5.0980425833
  S        14.7622768690        1.3418734945       -7.7990521409
  C        13.7579851583       -1.5049116592       -7.7525120306
  H        13.7164904076       -2.5645741449       -7.4277916829
  H        14.7516776646       -1.3947959214       -8.2569477894
  C        12.5077559663       -1.2253013627       -8.5890205614
  H        11.5618923260       -1.1407931712       -8.0874890090
  H        12.4915923160       -2.0688111815       -9.2655495408
  H        12.7399922810       -0.3465698603       -9.1901321186
  H        -3.6776249127       13.1130559661       16.1406385852
  C        -2.7030609446       13.5090066037       16.3978847351
  H        -1.9445758880       12.7913116132       16.7216811071
  C        -2.8259343448       14.5651762032       17.4915165378
  C        -2.2335964279       14.1838771841       15.1216683947
  C        -3.2361196821       13.8930351965       18.7956710221
  H        -1.8462355290       14.9443603191       17.6655734311
  H        -3.4580889646       15.3822944358       17.2567156513
  H        -1.1977061400       14.3928712264       15.1399315507
  H        -2.3415867432       13.4539337267       14.2942868880
  H        -2.7847923716       15.1107420550       14.9068924071
  C        -2.1456418736       13.3520914282       19.7596049953
  H        -3.8721571975       13.0147883980       18.5509803178
  H        -3.7723807021       14.5276940246       19.4375312546
  C        -2.5432685248       13.4186873409       21.2334272976
  H        -2.0707150748       12.2704799877       19.4908030063
  H        -1.2411586410       13.8783981167       19.6489439891
  C        -1.6321623327       12.6390386018       22.2151431153
  H        -3.4980014970       12.9731137215       21.1836197668
  H        -2.7569074679       14.4834841222       21.5124865110
  C        -0.4782754521       13.5612403487       22.6740275262
  H        -2.3416960210       12.4181085482       23.0126602962
  H        -1.3045861957       11.6800151588       21.9341183921
  C         0.7329595773       12.8555017551       23.3563808261
  H        -0.1482910458       14.1250721639       21.7177287809
  H        -0.7247716775       14.2553673922       23.4019444155
  C         1.1114628300       11.5463676263       22.5906943544
  C         0.3017562365       12.1094216125       24.5814284656
  C         1.9539542748       13.8091107552       23.5725912631
  C         0.9079663308       10.4546991949       23.4083766878
  C         1.6072855071       11.1831245119       21.3227883382
  C         0.3771828062       10.7722469279       24.6222365099
  C        -0.0965570597       12.6830217457       25.7475275440
  H         2.0871490990       14.3140628023       22.6643686937
  H         1.6754979389       14.4689061739       24.2844270934
  C         3.2958942610       13.1094473285       23.8191478262
  S         1.3367896016        8.9130074026       22.6762074470
  C         1.9056941779        9.8179084835       21.2984633656
  H         1.8520555253       11.8374802737       20.5638918164
  C         0.0352494354       10.0784327289       25.7982299927
  H        -0.1636647337       13.7189700120       25.6417452863
  C        -0.4101523112       12.0137703906       26.8906199598
  H         3.5866307088       12.4705988115       22.9364360618
  H         3.3337277844       12.3239926767       24.6838897316
  C         4.3811990303       14.1320059718       24.1171020610
  C         2.5169492771        9.1766483573       20.0373117713
  C        -0.3816262367       10.6758593776       26.9988823098
  H         0.1932797602        8.9753017119       25.8009328886
  C        -0.7304766260       12.4612050618       28.1191518856
  H         5.0781110557       13.6562213802       24.8410930134
  H         3.8913624824       14.9388683397       24.6256082420
  C         5.1907211938       14.5944384075       22.9012036219
  C         2.5502246280        7.8353189497       19.6927475607
  C         2.9326927383       10.0772750649       18.8862641449
  C        -0.8561044445        9.9657441127       28.2441418374
  C        -0.9863838410       11.3534024291       28.9783781936
  S        -0.9649928400       13.9815989374       28.8509474609
  H         5.8145486067       15.4166073899       22.9497294433
  H         4.4006229339       14.9685331442       22.2315880345
  C         5.9997504639       13.5537402560       22.0727691644
  N         2.1364743501        6.8490453758       20.5559563264
  C         2.8668825836        7.3412979551       18.4446814402
  C         3.2761774445        9.5966470705       17.6674513510
  H         3.1500431454       11.0726563411       19.2315471660
  C         0.2657910635        9.0835927129       28.8355062404
  C        -2.2742806434        9.2860861733       28.1393904288
  C        -1.3154428201       11.7841983886       30.2789852775
  C        -1.3821759085       13.2012811152       30.2814603547
  H         6.9739540115       13.8843409305       21.8379124277
  H         6.2010784516       12.7037451353       22.6120070325
  C         5.3654110119       12.9561297134       20.8099361813
  S         2.2783251113        5.4168772880       19.7833654936
  N         2.6508668381        5.9540036448       18.3211572326
  C         3.1104030620        8.2229430521       17.3515400106
  H         3.6724646712       10.3729321292       16.9393654522
  H         0.5725694075        8.3317995006       28.1772884345
  H        -0.0042049939        8.5808270382       29.7078918699
  C         1.5659343552        9.8438785030       29.2627026713
  H        -2.2287761330        8.5786549751       27.2918928268
  H        -2.5103091012        8.7016370153       28.9618362277
  C        -3.4141352863       10.2676359957       27.7853261196
  H        -1.6645024052       11.0205167588       30.9894077976
  C        -1.7267975001       14.0067646901       31.5028527753
  H         4.2909227661       13.2277601353       20.8222297469
  H         5.5475403332       11.9051059711       20.7673702394
  C         5.8353350649       13.6526133527       19.5497795783
  C         3.3556561985        7.5941100362       16.0463382898
  H         1.9041946465       10.4787284643       28.4644580985
  H         1.4401247516       10.5036730822       30.1379265676
  C         2.7106365741        8.8810023162       29.6963375417
  H        -3.2599454613       10.8437921974       26.8991325524
  H        -3.4577358327       10.9261988894       28.5917339025
  C        -4.7316017298        9.5130280485       27.7061079352
  C        -1.7951312269       15.4084206770       31.6273465554
  C        -1.8884602311       13.2769652720       32.8067727240
  H         5.1134213103       13.5296282813       18.7724523709
  H         5.7719631592       14.7076124915       19.7374592445
  C         7.3156136034       13.2256146325       19.1779857677
  H         3.0950799913        6.5656217876       15.9815490942
  C         3.6259569434        8.1236675280       14.8266144095
  H         2.8767782078        8.0799051769       28.9033865357
  H         2.3528734450        8.2630325378       30.5035476772
  C         4.0597842083        9.5095328570       29.8792296905
  H        -4.4119143654        8.8463565423       26.9207484946
  H        -5.0165605944        8.9609475386       28.6139050906
  C        -5.8486212801       10.3592796864       27.1382306047
  N        -1.4950837654       16.2583152038       30.5536335139
  C        -2.0481852695       16.0395825281       32.8333265763
  C        -2.1776328980       13.8725661977       33.9954480381
  H        -1.5620831413       12.1982443049       32.8169460994
  H         7.4966031705       13.2254322964       18.1014937467
  H         8.0842729106       13.7790748662       19.7030345681
  H         7.4815167267       12.1734052508       19.4698072269
  S         4.0777739449        9.6944928983       14.4397295591
  C         3.7121551185        7.1150323366       13.7450743426
  H         4.2997374782       10.2510576617       29.0716608841
  H         4.0149744001       10.1208656632       30.7538917561
  C         5.2413657774        8.6014495619       30.0801590568
  H        -5.5943310215       11.4460446730       27.1135459431
  H        -6.7339728330       10.2843856841       27.7286118225
  C        -6.0377337460       10.0958045224       25.6783829564
  S        -1.5229026815       17.7545562852       31.1792287679
  N        -1.9291424740       17.4374647640       32.7131288517
  C        -2.3012763786       15.3000768419       34.0329461951
  H        -2.2104049213       13.2735300889       34.9156346221
  C         4.1568642387        9.1340890576       12.7413647803
  N         4.0447046582        7.8181203494       12.6060969942
  O         3.5086570515        5.9033380740       13.8190176711
  H         6.1664340277        9.1260860755       30.2820185516
  H         5.4823988675        7.9692829624       29.2226118481
  C         4.9892526857        7.6828200015       31.2211074083
  H        -5.2534985091       10.4060092460       24.9849175449
  H        -6.2065103466        9.0593908723       25.6068533930
  C        -7.2685539727       10.8472986483       25.2050358758
  C        -2.6136015591       16.0063308302       35.2672760696
  S         4.4959442517       10.1411183690       11.3826020992
  C         4.0704089755        7.1490577711       11.3002145446
  H         5.6383051056        8.1743068808       32.0214563465
  H         3.9827204280        7.6463429998       31.6866426301
  C         5.3111693081        6.1943671718       30.9166425573
  H        -7.1423437390       11.3617924701       24.2119050506
  H        -7.6374393948       11.6365631293       25.9270381598
  C        -8.5931197850       10.0726692443       25.0947967145
  H        -2.2282162036       16.9425339160       35.2777800931
  C        -3.1359265407       15.7857348905       36.5407099939
  H         4.7922128228        7.5983797676       10.6366113291
  H         4.4612320022        6.1059854052       11.4916829067
  C         2.7010740456        7.0849573307       10.5711184638
  H         4.7949294655        5.8774497844       30.0291332717
  H         4.8884181372        5.4873690620       31.6120325508
  C         6.8087981068        5.9863144396       30.6957380599
  H        -9.1011599673       10.7260262447       24.4549930721
  H        -8.3828405773        9.0905117233       24.6195790863
  C        -9.2888541421        9.8613955525       26.4206134344
  S        -3.8477828476       14.3529869969       37.2107849320
  C        -3.2168067104       16.9692231404       37.3965887524
  H         1.9888532074        7.7041372769       11.2222053902
  H         2.7003811935        7.6539020999        9.6769406328
  H         2.3834732824        6.0498716331       10.2875736496
  H         7.3795059265        6.0684525130       31.6423373367
  H         7.1554592545        6.6358607376       29.8989367379
  H         6.9051216846        5.0098847948       30.2775255605
  H        -8.9397045020        9.0273428578       27.0349525629
  H       -10.3360762925        9.7341741407       26.1568423696
  H        -9.2800130201       10.7895741895       27.0351408489
  C        -3.9955044615       15.2968385933       38.6752655282
  N        -3.7580086816       16.6204501009       38.5411653270
  O        -2.8582768823       18.1536034582       37.0916445702
  S        -4.7657285833       14.7166565382       40.0957860030
  C        -3.9165810941       17.5818730538       39.6485983833
  H        -4.0858856951       18.5042936802       39.2388681998
  H        -4.6574800102       17.3926244808       40.4136248364
  C        -2.5784154000       17.8769561556       40.4130748309
  H        -2.3520841213       18.9826911611       40.4775033974
  H        -2.7299247965       17.4137401408       41.3640886306
  H        -1.6955919117       17.4101247031       39.9726388133
