352
i=
  H         2.6801366198        1.9771346683       13.4529527383
  C         3.5801985299        1.8885705953       12.7746565127
  H         3.4922974057        0.9988083793       12.2786834512
  C         3.4523306440        3.1151638691       11.8379606519
  C         4.8709998840        2.0706307297       13.6199392943
  C         4.4661121944        3.0250430921       10.6040144768
  H         3.5198377428        4.1119349650       12.2951778306
  H         2.4013599432        3.0974194981       11.3594416987
  H         5.0843625773        1.1076605140       14.0910564169
  H         4.6585610828        2.8879513151       14.2909950744
  H         5.7424473471        2.2293751138       12.9942201942
  C         4.5022384224        1.7081560718        9.9073814471
  H         4.1644214315        3.7652191835        9.8541260733
  H         5.4468491129        3.3079531223       10.9388319796
  C         5.2003553817        1.7115835114        8.4986878020
  H         3.5424860428        1.3078053056        9.7617333871
  H         5.0379678398        1.0077315948       10.5870052135
  C         6.5260455139        2.4696511110        8.4397630642
  H         4.6155800670        1.9816442488        7.6536831134
  H         5.4036763124        0.6790881867        8.2080501072
  C         7.6853092967        1.7527776885        9.2189779213
  H         6.7350364556        2.7731643217        7.4533584940
  H         6.3185289076        3.4264969735        8.8902006462
  C         9.0355593950        2.5066011390        9.4295398328
  H         7.9121165064        0.8010103307        8.6930449920
  H         7.3480246693        1.4817073441       10.1970910362
  C         8.7529522914        3.7585413952       10.1788494941
  C         9.3974712071        3.2403041104        8.1803883128
  C        10.0947321292        1.7096408934       10.2138228810
  C         9.0234619572        4.8924860368        9.4119906103
  C         8.2455870517        4.1712740694       11.4289359963
  C         9.4968367307        4.5670075804        8.1674414592
  C         9.7502562834        2.6181320164        6.9818706371
  H         9.6376590563        1.5516359248       11.1735894115
  H        10.3291710608        0.8329401474        9.6214542971
  C        11.3829624027        2.4601671158       10.6183450581
  S         8.8181940075        6.3709052443       10.2217739436
  C         8.1569850325        5.5545317833       11.5425740043
  H         7.8647341472        3.3838671686       12.0653285020
  C         9.9107345343        5.3058459117        7.0690377627
  H         9.6326308604        1.5774784270        6.8553055132
  C        10.2220214588        3.3800314440        5.9445537751
  H        11.2666073614        3.3072764196       11.2261380523
  H        11.8713226245        2.7266998503        9.6983625991
  C        12.4384105017        1.6539118870       11.3809400540
  C         7.6658012921        6.2870769575       12.7350608633
  C        10.2646873886        4.7083322811        5.8662311928
  H         9.8949654284        6.3996125978        7.1631018330
  C        10.6036292468        3.0174865943        4.6538251981
  H        13.3595139489        2.1828583012       11.1010994687
  H        12.6153156079        0.6692644280       10.8815730019
  C        12.1943276120        1.6440854006       12.9262005459
  C         7.8147858113        7.6629755191       13.0617198393
  C         7.1186846543        5.5098050270       13.9109765546
  C        10.5904213246        5.3895523441        4.5314883206
  C        10.7862382422        4.0479414225        3.8109696453
  S        10.8036059445        1.4820816454        3.8797527780
  H        11.5574589907        2.4881027955       13.2859906138
  H        11.5384654928        0.7878097248       13.0347369325
  C        13.4984338890        1.5542534357       13.7521608844
  N         8.2908464363        8.5952687644       12.1934924074
  C         7.4836477872        8.2393487058       14.2699511398
  C         6.9411035690        6.0496489934       15.1725661919
  H         6.7546345252        4.5028934285       13.7336931416
  C        11.8816585653        6.2254339581        4.6117401216
  C         9.5188823659        6.2636694504        3.7867030814
  C        11.0997421927        3.7079320756        2.4835979946
  C        11.1951205694        2.3229312829        2.3829337592
  H        13.8798963271        2.5832699989       14.0332177903
  H        14.2674724866        1.1115558205       13.1476779093
  C        13.1732160834        0.8292276704       15.1155805029
  S         8.3163994459       10.0533785594       12.8558074601
  N         7.6675466993        9.6232902673       14.2933884089
  C         7.0843650828        7.5098776107       15.3860823937
  H         6.4280371560        5.4863088161       15.9119052824
  H        11.6329162553        6.9560770040        5.3270218417
  H        11.9579924932        6.7476194895        3.6742482139
  C        13.1637832172        5.5562319876        5.0440786531
  H         9.3116518896        7.1418486734        4.3521201288
  H         9.8950571288        6.4724902972        2.7996396361
  C         8.2233776433        5.4497788517        3.5494915346
  H        11.1992072061        4.5316673476        1.6862234866
  C        11.4714597214        1.5966148119        1.0932004927
  H        12.2186993991        0.3868173713       15.1890084164
  H        13.8026052417        0.0707350988       15.3822358051
  C        13.2465653290        1.8704762586       16.2224139180
  C         6.8053940143        8.1658794502       16.5989453570
  H        12.9379535940        4.9141119203        5.9042865695
  H        13.4007230628        4.8248183409        4.2060756924
  C        14.2544112173        6.5295342604        5.4071267701
  H         7.8160783907        5.0729273474        4.5349704515
  H         8.2984893241        4.5837268323        2.8283279464
  C         7.1249432511        6.4006440613        2.9588302408
  C        11.4925192714        0.2080738739        0.9360243284
  C        11.6006357690        2.3527416103       -0.1736060340
  H        12.6438031773        2.8071487949       16.1087599381
  H        14.2427211225        2.2866969014       16.2394885713
  C        12.9796932662        1.4638283669       17.6740632913
  H         6.9609930319        9.2689287819       16.5712019197
  C         6.6229999579        7.7010178260       17.9031056758
  H        13.8324248866        7.4193624346        5.9020359104
  H        14.6791244540        6.7393057061        4.4009743553
  C        15.3477142091        5.8818101241        6.2443747490
  H         6.7402298792        7.0739668179        3.6138155287
  H         7.6031532195        7.1234953438        2.3091430856
  C         6.1305356433        5.6682588056        2.1116645734
  N        11.2143990962       -0.6801866567        1.9708324955
  C        11.9374134637       -0.4009024218       -0.1907894335
  C        12.0066000929        1.7442797620       -1.3726528937
  H        11.6825916004        3.4611322835       -0.1611100202
  H        13.4514461283        2.1235938099       18.3885129535
  H        13.4663038339        0.5148989143       17.7746315112
  H        11.9004757855        1.4588340871       17.9344268588
  S         6.4271513913        6.0739730456       18.3410442453
  C         6.4442395127        8.7355261153       18.9832529666
  H        15.7001763077        6.4927653555        7.0847105515
  H        15.0100845036        4.9600981638        6.6895843491
  C        16.5494587726        5.4328099633        5.4394838422
  H         5.4888330313        5.1042548860        2.7538478890
  H         6.6313243663        4.9815539435        1.4188879473
  C         5.2376070943        6.6340342290        1.3946430353
  S        11.4088710478       -2.1705507274        1.4295407454
  N        11.9966878859       -1.7540433793        0.0069680369
  C        12.2501839159        0.2378156462       -1.4175908362
  H        12.3621607308        2.3530005664       -2.2211498294
  C         5.9748102801        6.7392063900       19.9103277246
  N         6.0220534644        8.0632358126       20.0649657134
  O         6.3890523630        9.9577736901       18.8715690167
  H        16.1523367535        4.5678205879        4.8505558808
  H        16.8763554458        6.2749149470        4.8762650167
  C        17.7072941788        5.0267646146        6.2989463583
  H         5.8777050209        7.3168723505        0.8967247882
  H         4.7242259823        6.0814887154        0.6106795560
  C         4.2327823079        7.2929202069        2.2950066950
  C        12.6361610797       -0.3905867497       -2.5863426411
  S         5.3206544077        5.7349175488       21.1715525435
  C         5.8329809230        8.6695368418       21.3807724168
  H        17.3497206564        4.6182658710        7.3348766817
  H        18.2729443039        4.2403046308        5.7873131441
  C        18.6978697580        6.1957014563        6.5498644210
  H         4.2668319978        6.8943575698        3.3056481759
  H         3.2308403192        7.0042902229        2.0534291400
  C         4.4140560890        8.7517505855        2.4173859360
  H        12.5996933570       -1.4787659344       -2.3030503557
  C        13.2049067999       -0.0559635654       -3.7783669720
  H         5.0419538063        8.2358399195       21.9738549367
  H         5.4754163687        9.6665825580       21.3982668066
  C         7.1227788209        8.6818859100       22.1995295075
  H        18.1523092811        7.0332348312        6.9673650406
  H        18.9863914947        6.5867467794        5.5272224278
  C        19.9830087253        5.8696868501        7.3086364324
  H         4.2669542388        9.0358577431        3.4282264480
  H         5.4256233874        9.0168247005        2.2820743136
  C         3.5958688397        9.6355194035        1.5220216385
  S        13.6082285726        1.4956491799       -4.4422186545
  C        13.3474883963       -1.1654629332       -4.7204663359
  H         8.0037175538        8.9886109864       21.6502736049
  H         7.3376902458        7.6663314586       22.5941631826
  H         7.0504282576        9.2549444063       23.1131971684
  H        20.0086816348        4.7750317248        7.3964878781
  H        20.8857476146        6.2768793971        6.9502442352
  H        19.9557671444        6.1365918679        8.3816948640
  H         4.1939092850       10.4237995613        1.1338123032
  H         3.3314095058        9.0588025110        0.6363288542
  H         2.7291783104        9.9010731648        2.0482189427
  C        13.9538610805        0.6276832383       -5.9377865739
  N        13.7843736396       -0.6933176864       -5.8901519944
  O        13.2211342099       -2.3798551861       -4.4023990237
  S        14.5613728258        1.4376775745       -7.4712912167
  C        13.9239433004       -1.5903953745       -7.0166194910
  H        14.0326696991       -2.6234782984       -6.6685966754
  H        14.7794006229       -1.2344160566       -7.5695139820
  C        12.7855924995       -1.4709963891       -8.0179286234
  H        11.9972203794       -0.8251704026       -7.6202360095
  H        12.2649635895       -2.3851386451       -8.2627948563
  H        13.1570732255       -0.8950209159       -8.8299077682
  H        -4.0193427263       14.2479499760       16.7974971500
  C        -3.4283274574       13.3870663827       16.7070486883
  H        -4.0220124183       12.4850661896       16.7619467677
  C        -2.2742759074       13.4126606513       17.7112919796
  C        -2.8639681016       13.2020254578       15.3251919585
  C        -2.8743762457       13.4837402345       19.1085296984
  H        -1.7281281976       12.5145981480       17.6481614935
  H        -1.7062229759       14.3680464133       17.6006169199
  H        -2.9847929338       12.1742796318       14.9990792053
  H        -3.3280889797       13.9239667255       14.6195059180
  H        -1.8204998807       13.5747340467       15.2830013476
  C        -1.7509144560       13.2462716083       20.1079135229
  H        -3.6342088628       12.7206165327       19.2866683322
  H        -3.2730517781       14.5358019209       19.3517888452
  C        -2.2479969598       13.2318445286       21.5505561553
  H        -1.4042915289       12.2517954096       19.8474935432
  H        -0.8609138699       13.7294120195       19.8634711561
  C        -1.2787205685       12.5892210276       22.4994094313
  H        -3.1380037390       12.6661089354       21.5474628907
  H        -2.4466542733       14.2527978421       21.7853259611
  C        -0.1227725858       13.5156920086       22.8173038669
  H        -1.8040453149       12.4797472901       23.4102015977
  H        -1.0862939584       11.5669790845       22.0782323598
  C         1.1165112665       12.9052594213       23.4913141128
  H         0.2762257730       13.9173178216       21.8488193669
  H        -0.4583903718       14.3069368468       23.4875828907
  C         1.5955428502       11.6239141692       22.7438923028
  C         0.6735409595       12.1354263030       24.6688213507
  C         2.2322535272       13.9656976068       23.6761737142
  C         1.2580482236       10.4750116048       23.4347799858
  C         2.1620280256       11.2618077881       21.4630498211
  C         0.7241391922       10.7705154875       24.6997833731
  C         0.2708119186       12.6715735013       25.8912202218
  H         2.5024175720       14.2288100473       22.6561752015
  H         1.8292179838       14.8506084527       24.1905766517
  C         3.4329532291       13.3820326006       24.4442563203
  S         1.8375795655        9.0317648364       22.7693694465
  C         2.2703145580        9.9229456683       21.3776468432
  H         2.2839346019       11.9894726877       20.7389346301
  C         0.4222004728       10.0573298430       25.8319868014
  H         0.2618715574       13.7548897955       26.0153976581
  C        -0.0184277454       11.9797035986       26.9823194255
  H         3.8825170637       12.5746435568       23.9146477587
  H         3.2472089054       12.8371996024       25.3393102174
  C         4.5795140196       14.4586566360       24.6396160373
  C         2.6185315252        9.2134683554       20.1215805534
  C         0.0432012536       10.6203621484       27.0666995763
  H         0.5402956315        8.9354337057       25.6938890750
  C        -0.4347108296       12.3635687901       28.2233778512
  H         5.1998461469       14.1529605319       25.4847592607
  H         4.1066662663       15.3540122411       25.0598477958
  C         5.3217039147       14.9993208399       23.4207204948
  C         2.4324104034        7.8372920167       19.8241108572
  C         3.0446476838       10.0474853791       19.0554365075
  C        -0.3142609711        9.9021434986       28.2731210011
  C        -0.6536334715       11.2504129244       29.0276859146
  S        -0.8215541292       13.8763754854       28.8986187257
  H         5.9088877998       15.8897644071       23.7134227142
  H         4.6433161269       15.3403478697       22.6367286540
  C         6.2142270234       14.0476004538       22.6464632258
  N         2.1636000516        6.8381441943       20.7416529951
  C         2.7421617122        7.3471890035       18.5671579452
  C         3.3905162346        9.5537453116       17.8552123177
  H         3.1755874593       11.0832404981       19.1453228506
  C         0.8370405652        9.1006278675       28.8326106472
  C        -1.6259104222        9.0363875957       28.1636864185
  C        -1.2090628481       11.6499631690       30.2943330364
  C        -1.1705868700       13.0698461505       30.4251531277
  H         7.1764320661       14.5605416127       22.4635769027
  H         6.4373627057       13.1755691162       23.3576326599
  C         5.6329937441       13.7483422083       21.2134470709
  S         2.1939744478        5.3851263457       19.9247388466
  N         2.6704540635        5.9359267437       18.4803505352
  C         3.1325464016        8.1214938890       17.5012755107
  H         3.8565648866       10.2559204768       17.1894863731
  H         1.2001366688        8.4088956911       28.0784307854
  H         0.2945061945        8.5823074792       29.6168114332
  C         2.0227113576       10.0403165408       29.2353951444
  H        -1.3607521213        8.2334920927       27.3855381216
  H        -1.7510104170        8.5128968860       29.1522204031
  C        -2.8112049685        9.8924518322       27.6770704392
  H        -1.5284321000       10.8786161868       30.9898248263
  C        -1.4321648120       13.8331262643       31.6516501706
  H         5.2874392119       14.6219368735       20.6216933671
  H         4.9059059828       13.0884214254       21.4760111019
  C         6.5174404398       12.7668764082       20.4231395481
  C         3.4373897529        7.5011590684       16.2608036373
  H         2.3545732094       10.6550463640       28.5017392487
  H         1.6507209664       10.5544480825       30.0617160174
  C         3.2238745613        9.2552552121       29.7746553050
  H        -2.4611630108       10.4716322628       26.7936442382
  H        -3.2294836525       10.4929916712       28.4712561860
  C        -4.0390171617        9.1639105075       27.2641922209
  C        -1.5543027070       15.2584908962       31.7845956041
  C        -1.7302529814       13.1247136634       32.8919852969
  H         6.7017554497       11.9158379920       21.0340607940
  H         5.9098609839       12.3378279580       19.5681062178
  C         7.8520137236       13.3342472209       20.0129699232
  H         3.1795265947        6.4533878035       16.2268139305
  C         3.8193128820        7.9726749530       14.9912184934
  H         3.6954446325        8.9222514486       28.8339948483
  H         2.9543902641        8.4309175835       30.4316725986
  C         4.1943169253       10.1731734083       30.5372940053
  H        -3.7635648786        8.2417543361       26.7078973286
  H        -4.5286657049        8.9397274979       28.2088333998
  C        -4.8974311701       10.1441658197       26.5665065871
  N        -1.4735881635       16.1357486904       30.6987044638
  C        -1.8150622722       15.9576003670       32.9695724164
  C        -2.0678125646       13.8067753047       34.1286799376
  H        -1.6519649011       11.9933136106       32.8774700986
  H         8.4912372091       13.7626238915       20.8394391332
  H         8.4845585938       12.4357631079       19.7172434579
  H         7.8709622030       14.0753809952       19.2607174526
  S         3.9467365443        9.5671919657       14.5187581792
  C         4.0835491991        6.9999164550       13.8988191790
  H         4.0192669676       11.2056837408       30.3289060655
  H         3.9481505661       10.1315002433       31.5981337119
  C         5.5957589946        9.7394871834       30.3469296894
  H        -4.4932345360       10.6103504215       25.6592697568
  H        -5.0202532035       10.9333481447       27.2634001621
  C        -6.3257898588        9.5733753730       26.2599672940
  S        -1.4315513940       17.6765085947       31.2501760993
  N        -1.7752394040       17.3330983761       32.7900582544
  C        -2.1568647068       15.2762117931       34.1745230091
  H        -2.2302479013       13.2528110496       35.0384262754
  C         4.4446961945        8.9413810115       12.9369095015
  N         4.4574839532        7.5828937027       12.7997939501
  O         3.8145433848        5.7579628947       13.9075592823
  H         6.3764634493       10.3485571108       30.7197514663
  H         5.7872419373        9.4759538935       29.3415017556
  C         5.9484176978        8.4696289005       31.0763512346
  H        -6.0911106014        8.5974864401       25.7669517771
  H        -6.8105868820        9.2660959193       27.1839494663
  C        -7.1882478644       10.5099319420       25.3911133482
  C        -2.5146986879       16.0966538934       35.2950766714
  S         4.8540546663        9.9577060916       11.5984676353
  C         4.6225555457        6.8363515500       11.5457886758
  H         6.5048170191        8.5986498119       32.0273391282
  H         5.0655781618        8.0241205886       31.4172860114
  C         6.6666038447        7.3930970840       30.0907509310
  H        -6.7009580772       10.9137306545       24.5102042699
  H        -7.3197346252       11.4576999030       25.8958621256
  C        -8.5471710613        9.8474540134       25.1679534554
  H        -2.3001412101       17.1182382264       35.0718769956
  C        -2.8549854337       15.8673697779       36.5998104917
  H         5.3249166310        7.3159801967       10.8746367493
  H         5.1385993285        5.8778472147       11.8109630855
  C         3.3299739016        6.6523923856       10.7647773432
  H         7.6949857896        7.7451780190       29.8465558729
  H         6.1174549488        7.2314882504       29.1443884532
  C         6.7673190350        6.1149565136       30.8517674551
  H        -8.8453502036       10.0006938897       24.1454800500
  H        -8.4578419330        8.7588975186       25.3308575769
  C        -9.6164225369       10.2612374969       26.1222536368
  S        -3.4340905338       14.3365765878       37.2496726575
  C        -2.9624338329       16.9858323807       37.5180450982
  H         3.5061752347        6.8847297541        9.7445069875
  H         2.8903538205        5.6621847351       10.8644083311
  H         2.5706929153        7.3878261750       10.9920041618
  H         5.8137842305        5.6365399153       30.9412246643
  H         7.2321494479        6.3476924822       31.8292542983
  H         7.4341011612        5.4233850372       30.2830887635
  H       -10.3019725763       10.9823553550       25.7580380719
  H        -9.0957682183       10.5636043900       27.0364922000
  H       -10.2501778055        9.5126574745       26.6206720504
  C        -3.7196266931       15.1733476422       38.6981109345
  N        -3.4611987755       16.4966386855       38.6517342174
  O        -2.8220109065       18.1105064370       37.1185250565
  S        -4.5880862299       14.7029090919       40.0831443081
  C        -3.6142605465       17.4684474261       39.7466634685
  H        -3.5571622779       18.5079711846       39.4715711858
  H        -4.5578110226       17.2694215083       40.2260578062
  C        -2.4042940433       17.2973297714       40.6504404574
  H        -2.1801498720       16.2383584581       40.8993625490
  H        -1.5034645890       17.8090239458       40.1690799243
  H        -2.5260177215       17.8762362742       41.5444038811
