352
i=
  H         4.5025479029        1.1920053227       12.2869224097
  C         3.8439908401        1.9744040556       12.3752770036
  H         4.4483145803        2.8345428065       12.4866722886
  C         3.0266360911        2.0191650381       11.0196478342
  C         3.1333080606        1.5177721354       13.6307759703
  C         3.8452584364        2.4823437062        9.8003159289
  H         2.1397856241        2.6072415108       11.0818894228
  H         2.6720783619        0.9870004610       10.9458065797
  H         2.4836164459        0.6880240689       13.4333885248
  H         2.6417777589        2.3323101946       14.2082025493
  H         3.8215175561        1.0250796286       14.3319434581
  C         4.7856711793        1.3543838836        9.2277536903
  H         3.1953844779        2.7413149673        9.0241500841
  H         4.6242482638        3.2012942794       10.0067991302
  C         5.6098976406        1.6968785268        7.9645618927
  H         4.1880106892        0.4136754935        9.0670659344
  H         5.4905654074        1.0640228898        9.9813614604
  C         6.7825672858        2.6110211961        8.2751309227
  H         5.0546399334        2.2788740023        7.2691592219
  H         5.9655581265        0.8611361860        7.3995607855
  C         7.9515880632        1.8048380358        8.7583950061
  H         7.0908858950        3.2114983149        7.4135746235
  H         6.5550605332        3.4265380246        8.9500095840
  C         9.2094012233        2.6937582879        8.9249845125
  H         8.1491110700        0.9592227287        8.0640380916
  H         7.7317622736        1.4874771992        9.7140957454
  C         8.8705958692        4.0204732161        9.5442499269
  C         9.6529968726        3.3859165887        7.6380689894
  C        10.4223720000        1.9042520058        9.5676266950
  C         9.0308014493        5.1525641729        8.7154618077
  C         8.5854979317        4.4622436986       10.8637931827
  C         9.6256835870        4.7472080918        7.4919196245
  C        10.1579878280        2.7362141830        6.4741181060
  H         9.9839699524        1.3963750585       10.4158235481
  H        10.7044058367        1.1568607156        8.8183990720
  C        11.6617137450        2.7738054309        9.8815360289
  S         8.6796520586        6.6617146262        9.5051537594
  C         8.4346806338        5.8092577158       10.9187927774
  H         8.4381937187        3.7146739198       11.6463340581
  C         9.9626268883        5.3371507439        6.2969644103
  H        10.2899159810        1.7151786024        6.4769031213
  C        10.4572913855        3.3536897082        5.2980181348
  H        11.3761747639        3.8178367998       10.1251141853
  H        12.0989932505        2.9309551541        8.9003086424
  C        12.8138172229        2.1520909028       10.7808341938
  C         7.9117942118        6.4664613033       12.1986083811
  C        10.3577035502        4.6834283374        5.1281375774
  H         9.8257130683        6.4506200774        6.1962903776
  C        10.8452454781        2.8923234885        4.0910199970
  H        13.6410552377        2.8380522772       10.5383961787
  H        13.0601931335        1.1351537728       10.5496836048
  C        12.2807809647        2.1981747207       12.1772684177
  C         7.9323987782        7.8845282426       12.4432536823
  C         7.4917869230        5.5991931684       13.3862237569
  C        10.6936975301        5.3737044088        3.8717036004
  C        10.9926118940        4.0058306291        3.2694554060
  S        11.2007545761        1.4430531627        3.3273565579
  H        11.7557371658        3.1799148101       12.3540522607
  H        11.5773315623        1.4283670092       12.2431911298
  C        13.4401951650        1.9461232969       13.1730804183
  N         8.4007371325        8.8802869675       11.5490396220
  C         7.5200982589        8.4363702748       13.6430454911
  C         7.1833038690        6.1289592020       14.6090129991
  H         7.5361816293        4.5244100616       13.3491613467
  C        11.9081257059        6.2306814471        3.9299141384
  C         9.4640410521        6.0330676068        3.1304386096
  C        11.3730184102        3.6445029330        1.9084730973
  C        11.5685443265        2.2681687718        1.8152464946
  H        14.0134793123        2.8738175137       13.2977274093
  H        14.2286310822        1.2927927046       12.7105119922
  C        13.0576388049        1.2388020607       14.4676390278
  S         8.3535237962       10.2632997606       12.3070812715
  N         7.5968782983        9.8766679335       13.6648541604
  C         7.1695420042        7.6032561403       14.7504487493
  H         6.8877654882        5.4586626329       15.4049409976
  H        11.7307314933        7.1738945543        4.4581656489
  H        12.2019373520        6.3678296334        2.9350341594
  C        13.1839756517        5.4597140868        4.3282641759
  H         9.4006969276        7.0504827098        3.5422053256
  H         9.7926183716        6.0748498434        2.0843527180
  C         8.1977195936        5.2188286823        3.0482073143
  H        11.2829400949        4.3998863996        1.1481947758
  C        11.6858917408        1.4425180684        0.6046783361
  H        12.2962748984        0.4148321033       14.1698421497
  H        13.9251371053        0.8610066189       14.9810263856
  C        12.4644357713        2.3196612857       15.3371777702
  C         6.9282309533        8.3888379211       15.9676915676
  H        12.9282389668        4.8842194397        5.1688990459
  H        13.4787369453        4.8895903629        3.4679321731
  C        14.3866910295        6.2152355506        4.8436965385
  H         7.9272451761        4.8189514044        4.0345321179
  H         8.4591607196        4.3606294903        2.4399512528
  C         7.0060510741        5.8940857653        2.4452929346
  C        11.7172065791        0.0791747298        0.4925471491
  C        11.8844085585        2.2628031041       -0.6520901123
  H        11.3674185413        2.2242628332       15.3057720186
  H        12.6545322061        3.2771435042       14.8729002410
  C        12.9704202706        2.2572656037       16.7499953640
  H         7.0673731032        9.4477570755       15.9252185058
  C         6.5922323537        7.9582319994       17.2673746408
  H        14.2055366887        6.8199020183        5.6572620781
  H        14.6557714437        6.9270190868        4.0677422942
  C        15.4841732064        5.1987641005        5.1492722656
  H         6.6394504120        6.7540528778        3.0474101710
  H         7.3970361295        6.2509224419        1.4414056362
  C         5.7849347126        4.9718003067        2.2807031050
  N        11.4502022226       -0.8169499266        1.5250068960
  C        12.1219167927       -0.5785964389       -0.6138792774
  C        12.2728291404        1.5768187385       -1.8053531465
  H        11.8376942990        3.3415101701       -0.6667841803
  H        14.0524986961        2.1221734113       16.8802444748
  H        12.3825763639        1.5592628301       17.2589179806
  H        12.8754303567        3.2493566343       17.1672765833
  S         6.4535760029        6.3812687751       17.8309173184
  C         6.3630906291        9.0025903616       18.3532187248
  H        15.1357736648        4.6209347836        6.0117353636
  H        15.5910062781        4.4204355495        4.3832487925
  C        16.8089871507        5.8589673999        5.4379443345
  H         5.2213950121        4.7769685747        3.2462826324
  H         6.1027811392        4.0387126083        1.9662372605
  C         4.7658619488        5.4858833105        1.2679696681
  S        11.7642117810       -2.3351601520        1.1016073826
  N        12.1128658267       -1.9930908642       -0.4561094361
  C        12.3998094811        0.1005849884       -1.8607990000
  H        12.4095037497        2.1856618286       -2.6657118439
  C         5.9824512153        7.0269338330       19.4300540904
  N         6.0233314697        8.3723040337       19.4903068427
  O         6.4088849768       10.2113895283       18.2164542154
  H        17.3245186012        5.4212448887        4.5700771434
  H        16.8625874689        6.9031404244        5.3932246389
  C        17.3072270834        5.3369034551        6.7744556651
  H         5.3957912164        5.6689601887        0.4037540880
  H         4.0768790918        4.6619286160        1.0177517123
  C         4.1461190037        6.8037245856        1.6426743836
  C        12.6158319047       -0.7172283324       -2.9971252721
  S         5.6416828682        6.1227259858       20.8870931541
  C         6.1033894603        9.1341359799       20.7356508057
  H        16.5234891118        5.6964758783        7.4617453811
  H        17.2524870917        4.2749141317        6.6805591006
  C        18.7426966896        5.7292072308        7.2150985258
  H         4.4466800726        7.1795255237        2.6051712912
  H         3.0640194855        6.6968881750        1.6821069393
  C         4.3220686938        7.8819560984        0.6134744991
  H        12.4021318131       -1.7551836550       -2.8569186134
  C        13.2639832491       -0.4226630483       -4.1796393351
  H         5.5402814867        8.6518023904       21.4782071452
  H         5.5673895443       10.0439238724       20.6135876096
  C         7.5834238811        9.1587805871       21.2873921732
  H        18.9608271089        5.1255866802        8.0976110536
  H        18.6646213889        6.7373397299        7.6512582209
  C        19.8843773331        5.6081682983        6.1529691644
  H         5.4607922238        8.1086141548        0.5943793193
  H         4.0694890092        7.4752953956       -0.3602913903
  C         3.6554771912        9.2088159145        1.0663874342
  S        14.0051861122        1.0950845771       -4.6177419989
  C        13.3073335643       -1.4516728863       -5.2104845249
  H         7.7961192456        8.1120299635       21.6219629286
  H         7.8175238982        9.9458048978       22.0249444356
  H         8.2664949488        9.3490719610       20.4700203806
  H        20.8304939785        5.6896989204        6.5910331782
  H        19.7601324901        4.7379836360        5.4414940102
  H        19.7420167781        6.4649031531        5.5427382935
  H         2.5730413356        8.9884594590        1.1285813067
  H         3.9997202640        9.4374443922        2.0632207701
  H         3.7790775898       10.1095063372        0.4880218455
  C        14.2377788873        0.3255015893       -6.1747981936
  N        13.7994003474       -0.9417517782       -6.3262000572
  O        12.9819166157       -2.6277560583       -5.0501467311
  S        15.0443028886        1.1505821368       -7.5692672698
  C        13.8674574950       -1.7523732584       -7.5517093434
  H        13.7881918334       -2.7326553980       -7.2145557531
  H        14.8682582784       -1.6453084217       -7.9514594970
  C        12.6731687307       -1.3424153395       -8.4448405108
  H        12.9271964032       -1.5900126891       -9.4565767308
  H        12.5650807228       -0.2730595359       -8.3664135661
  H        11.7473723920       -1.8194945056       -8.2479010640
  H        -3.2688900289       14.4025840218       16.3796308977
  C        -3.1899963616       13.3401066774       16.3672596858
  H        -4.1369572306       12.8372348411       16.6218631125
  C        -2.1272294581       13.0730789366       17.4080585475
  C        -2.8047503070       12.8290089216       14.9687112120
  C        -2.7057131922       13.1208583712       18.8238041891
  H        -1.8026085526       12.1072973218       17.1626046529
  H        -1.3242271280       13.8286951373       17.2380936619
  H        -2.8176332397       11.7202863369       15.0719873540
  H        -3.5248460365       13.0152179718       14.2464912811
  H        -1.8110604360       13.2105865669       14.5911380865
  C        -1.6208827724       12.6956436214       19.8639503955
  H        -3.5747286630       12.5305937700       18.8858426212
  H        -3.0094429448       14.1536777264       18.9426820803
  C        -2.1545302255       13.1713379822       21.2351690362
  H        -1.4953715348       11.6522990964       19.7420437359
  H        -0.7400226521       13.1852195196       19.4909879596
  C        -1.2596930945       12.7767644639       22.3273853504
  H        -3.1695072069       12.7877906342       21.4186136768
  H        -2.2719230515       14.2858170192       21.1860298043
  C         0.0645500187       13.5972539236       22.3731101379
  H        -1.7505337794       12.8185249685       23.3012952701
  H        -1.0111091013       11.7801544155       22.0566178701
  C         1.1761027769       12.8970574603       23.1960687070
  H         0.4745094182       13.7854549550       21.3591642877
  H        -0.1503797789       14.5013888158       22.9268360854
  C         1.6420781970       11.6528752720       22.4892364875
  C         0.7952707033       12.2400837020       24.4279946376
  C         2.3792583066       13.8191169081       23.4530897288
  C         1.4787498863       10.5269846080       23.3167576785
  C         2.0927074191       11.2171625255       21.2297283300
  C         0.8914554916       10.9018547436       24.5078286667
  C         0.2131933058       12.7680164986       25.5626585386
  H         2.4532434441       14.3824352550       22.5983545509
  H         2.1126833242       14.5004778041       24.2802383998
  C         3.7052177225       13.2383314409       23.8620895486
  S         2.1624857735        9.1503485189       22.6140652214
  C         2.3730110855        9.9030238175       21.1263873612
  H         1.9968068406       11.9262454227       20.3886197254
  C         0.5540258031       10.1537011552       25.6420544119
  H         0.0988522656       13.8752192258       25.6126737345
  C        -0.1332640075       12.0843102967       26.6927118659
  H         3.9488722304       12.4601079924       23.1698211551
  H         3.4756882460       12.6991853658       24.7667388719
  C         4.8666954183       14.2210368612       24.1306533674
  C         2.6731550464        9.1048907354       19.8446201369
  C        -0.0866306690       10.7186648675       26.7715979360
  H         0.8321858001        9.1492876903       25.6724066174
  C        -0.4234213136       12.5127409813       27.9159881790
  H         5.5808033678       13.7309599389       24.8103111406
  H         4.5031513088       15.0205161096       24.7555485841
  C         5.6333853606       14.6053512388       22.8680217458
  C         2.6872164670        7.7106939016       19.7837831750
  C         2.8456823401        9.9021329973       18.6406641799
  C        -0.2961764693       10.0588325077       28.0659846033
  C        -0.4689745204       11.4538876171       28.8243813386
  S        -0.7964377187       14.0009267485       28.7009863010
  H         6.4247525803       15.2972571796       23.2573239654
  H         4.9189841249       14.9685161056       22.1110253305
  C         6.3987016591       13.4104478538       22.1876420357
  N         2.1484421257        6.8661398893       20.7305899535
  C         2.9264487833        7.0651176867       18.5669571343
  C         3.1040499940        9.2785460171       17.4353330165
  H         2.9147773459       10.9683840913       18.6400764806
  C         0.8825776424        9.2596889724       28.6654505148
  C        -1.6978809832        9.3604542550       27.9242912119
  C        -0.7402734338       11.9196456166       30.1477118041
  C        -0.9637144183       13.2663449660       30.2472176896
  H         7.3478100007       13.7200431547       21.8000036529
  H         6.4041759471       12.5785590629       22.8703606129
  C         5.8011662970       13.0567182630       20.8313219610
  S         2.1666333925        5.3441648610       20.1375615849
  N         2.6911001373        5.7109157799       18.6758675515
  C         3.2062260895        7.7435402166       17.3771028091
  H         3.1347737720        9.8549741178       16.5214589113
  H         1.0962264686        8.4044456761       27.9727525125
  H         0.5566603089        8.8379917516       29.6605271022
  C         2.2007101153       10.0701395053       28.9520335333
  H        -1.7974104885        8.5786029850       27.1672981961
  H        -1.7488860356        8.8061635087       28.9805016986
  C        -2.9236241772       10.3445955148       27.8269479619
  H        -0.7633975910       11.1928862183       30.9225213219
  C        -1.3651900704       14.0244140682       31.4730680511
  H         4.8120054682       13.4703603118       20.7023353499
  H         5.5186333401       12.0401877619       20.8544762863
  C         6.6330626605       13.4017159304       19.5820964830
  C         3.4190697585        7.0174594982       16.1668130425
  H         2.4675811017       10.4785317901       27.9364680955
  H         1.9233316784       10.9929259116       29.5403567514
  C         3.2479111840        9.1450416583       29.6894772811
  H        -2.7496642768       11.0024025449       26.9573036176
  H        -3.0903645603       10.9124294528       28.6972045767
  C        -4.2360042327        9.6683939464       27.6100573572
  C        -1.5532855587       15.4199958569       31.4851926584
  C        -1.5076512838       13.2492906269       32.7522053027
  H         5.9969510206       13.2001984460       18.7256040339
  H         6.9831961706       14.4399735726       19.6002559605
  C         7.8651282158       12.4961144313       19.4792246106
  H         3.4105979867        5.9069502339       16.1895933630
  C         3.8130087933        7.3811903526       14.8803089486
  H         3.4567367415        8.4423155062       28.9738617874
  H         2.7476645230        8.7772717016       30.5583955425
  C         4.3531176467       10.1008704756       30.0096505418
  H        -4.0737724873        8.6634969224       27.1919884784
  H        -4.7103716665        9.5463809806       28.5942275554
  C        -5.1575582471       10.5168282800       26.7227584392
  N        -1.2940865366       16.2914560650       30.4524242633
  C        -1.7765769702       16.0775659025       32.7068591632
  C        -1.9021172179       13.8984769909       33.9625702576
  H        -1.4972817645       12.2072948008       32.7807864565
  H         8.2791068720       12.3178044997       18.5047287817
  H         8.6877693913       12.9203569152       20.0787376695
  H         7.5017852544       11.5265445773       19.8601388802
  S         4.0438098451        9.0167144526       14.3812131939
  C         3.8270505480        6.3533441523       13.8059282071
  H         4.5372132574       10.7595640619       29.1416235909
  H         4.1729803866       10.7676031086       30.8407523212
  C         5.6478690246        9.3836342257       30.3503396239
  H        -4.5496808069       11.1687942246       26.1561112840
  H        -5.7114298117       11.1937372510       27.3706312415
  C        -6.0829438334        9.6963372004       25.8445820969
  S        -1.3890995651       17.8135106611       31.0076542744
  N        -1.7613823918       17.4879236019       32.5343179981
  C        -2.0258743915       15.3847590499       33.9533286921
  H        -2.1825392710       13.3137109593       34.8365579470
  C         4.1794093697        8.3258380237       12.7666807114
  N         4.0926441809        6.9787637321       12.6493773327
  O         3.4498971134        5.1927423546       13.9644270238
  H         6.3050132193       10.1258937567       30.7760322630
  H         6.1420664669        8.8568962100       29.4923775685
  C         5.5697349429        8.2503298710       31.3343684297
  H        -5.4347738184        9.3613536608       25.0359367402
  H        -6.5519947429        8.9002787316       26.4039149814
  C        -7.1161878524       10.5759264108       25.2372507163
  C        -2.3048099208       16.1718078726       35.0943603783
  S         4.7669707601        9.1312281696       11.3221913526
  C         4.0771502786        6.3057790341       11.3847360173
  H         6.4733976052        8.2070724121       31.9489425537
  H         4.7186809641        8.4696072046       32.0737724425
  C         5.3483087277        6.8207158274       30.8262382853
  H        -6.6974708537       11.0533736291       24.3453227465
  H        -7.5136569642       11.4514505394       25.8798548726
  C        -8.3623507711        9.8096355385       24.7525832981
  H        -1.9214668681       17.1709215005       35.0417414805
  C        -2.8083138342       15.8838864895       36.3201205670
  H         4.7152122499        6.7535936884       10.5849014628
  H         4.3150683129        5.2493873990       11.5466833689
  C         2.7159069431        6.1212496323       10.8283694536
  H         4.9862027942        6.7893843905       29.8457999432
  H         4.5761193321        6.4367619900       31.4721014601
  C         6.7555006977        6.1830126600       30.8987277666
  H        -8.7496441706       10.5765554031       24.0759298692
  H        -8.1146865210        8.9018527029       24.2270691384
  C        -9.3118838141        9.6387631124       25.9175338512
  S        -3.1119743655       14.2910283305       36.9545536696
  C        -2.9070729840       17.0342117027       37.2604885652
  H         2.7940879691        5.3018221998       10.1273563402
  H         2.0938925658        5.9541812839       11.6510146696
  H         2.3105948407        6.9055602701       10.2218028766
  H         7.5295482761        6.6940580419       30.2382283713
  H         6.6008809044        5.2967712702       30.3826368364
  H         7.0873658973        6.0083306670       31.8951096101
  H        -9.0266352811        8.7938814653       26.5861557064
  H       -10.2701454467        9.3710535131       25.5260322672
  H        -9.4895882624       10.5388514352       26.4483951634
  C        -3.5390500967       15.2044623509       38.4002227723
  N        -3.3849399319       16.5485404755       38.4031643702
  O        -2.7548784302       18.1996664902       36.8994469065
  S        -4.0734027987       14.2980473921       39.8738914665
  C        -3.3932905465       17.3548281615       39.5921732511
  H        -3.8087919342       18.4049420670       39.5009253973
  H        -4.1202825762       16.8886437523       40.3185262397
  C        -1.9925204821       17.6035644431       40.2375048107
  H        -1.3999795180       17.9715186467       39.4176304224
  H        -2.1430392974       18.2236488531       41.1388688849
  H        -1.4522684994       16.7128031065       40.5862490750
