352
i=
  H         4.7279065886        2.1324677234       12.2849343219
  C         3.8300837223        2.7126652049       12.4910147956
  H         4.3021719802        3.6552550466       12.7522026783
  C         2.9787807202        2.7557349835       11.1453592304
  C         3.1450204806        2.1199733197       13.6977987619
  C         3.7874911391        2.9582666547        9.7791227471
  H         2.3550596626        3.6157086569       11.1898874151
  H         2.2735682441        1.9089624623       10.9973118502
  H         3.7576581517        1.9591108496       14.5544266279
  H         2.3949515224        1.3402459707       13.4673211088
  H         2.6456595757        2.8879293248       14.2195642093
  C         4.6374393449        1.7728891868        9.4715137661
  H         2.9522704467        3.0522157524        9.0518062085
  H         4.4859124543        3.9099803278        9.7542139430
  C         5.4592870231        1.8904936683        8.1684766572
  H         3.9129734941        0.9418278286        9.4384942849
  H         5.4108267144        1.6563958276       10.2671516258
  C         6.6743563217        2.8400500726        8.2975946788
  H         4.7907715877        2.2251208883        7.3287170269
  H         5.7202661239        0.9501761761        7.7111025019
  C         7.8063415379        2.1011560288        8.9245071627
  H         7.0078509411        3.1640808832        7.2924261323
  H         6.4326053130        3.7074572177        8.9504984956
  C         9.0832485561        2.9956939757        9.1478396814
  H         8.0768582082        1.1531654529        8.4601325440
  H         7.5028489309        1.8009467197        9.8890241400
  C         8.7302841060        4.3326043961        9.8742291242
  C         9.4543888583        3.8157716653        7.9503361554
  C        10.2545041000        2.2286637214        9.8237521717
  C         8.8895711068        5.4459727821        9.1001041134
  C         8.1151017378        4.5936400263       11.1202681817
  C         9.3734557728        5.1428862838        7.8337228714
  C         9.9082775786        3.2600289227        6.7793625615
  H         9.8876760779        1.7251528989       10.7370666901
  H        10.5312444322        1.4289699663        9.1609505101
  C        11.4853988135        3.1296395735       10.2085599266
  S         8.5230996895        6.8665601558        9.9249978028
  C         8.0118813762        5.9753317748       11.2544087826
  H         7.8705290980        3.7466488291       11.7796647386
  C         9.7536784858        5.8241846848        6.7440401866
  H        10.1051441805        2.2152173975        6.8777436694
  C        10.2649700359        3.9065675871        5.6111933728
  H        11.2064504283        4.1662497165       10.4515670990
  H        11.9527460582        3.2116711079        9.2016045825
  C        12.4847312355        2.6021515329       11.2433147966
  C         7.4581883900        6.6506782604       12.4513028335
  C        10.2260522150        5.3086138880        5.5425551148
  H         9.5696051463        6.8687140339        6.8379383998
  C        10.7101963518        3.5326406232        4.3466000698
  H        13.5260659688        2.9297112571       10.9102591774
  H        12.4059015599        1.5246827997       11.2732288437
  C        12.1270489391        2.9876819989       12.6511820433
  C         7.4427923173        8.0565853156       12.7293318043
  C         7.0082597238        5.7584445551       13.5663549561
  C        10.5940200130        5.9834641498        4.2190884928
  C        10.8458946645        4.6556830334        3.5127934057
  S        10.9670735142        2.1191856822        3.5456491338
  H        12.8124412473        3.7697007886       13.0119576210
  H        11.2206394123        3.4956109377       12.5466658550
  C        11.9803805074        1.8511483968       13.6587137334
  N         7.8188227343        9.1131005476       11.8744297459
  C         7.1599891682        8.5741645258       13.9824934752
  C         6.4378040698        6.3096322982       14.7106492971
  H         6.9267764977        4.6876940355       13.3849835371
  C        11.8895538396        6.7715510525        4.2665373866
  C         9.4393113983        6.8236270784        3.6173281660
  C        11.1646128136        4.3298217496        2.1920568744
  C        11.2833772921        2.9660553910        2.0890209403
  H        12.8503686869        1.1878839082       13.6932398703
  H        11.0661198763        1.2468436595       13.4567960791
  C        11.6053167593        2.3720994700       15.0744541003
  S         7.7956574826       10.5546518337       12.6228994607
  N         7.4041700039        9.9579289069       14.1306984771
  C         6.6552439361        7.7692020892       15.0296404064
  H         5.9259673437        5.6387336525       15.4264016600
  H        11.7952746432        7.5107549790        5.0488233354
  H        11.9741974864        7.3094110807        3.3640663231
  C        13.0895577849        5.8733845808        4.5217767196
  H         9.1801183867        7.5935375859        4.2961157138
  H         9.8564246056        7.3482188767        2.7768475460
  C         8.1957619220        5.9595182927        3.1406232188
  H        11.1201372693        5.1150044824        1.4527392901
  C        11.5427461167        2.1793499130        0.8195719454
  H        11.0298434324        3.3131929813       15.1772727179
  H        10.8316151530        1.7745649692       15.5855839878
  C        12.8585983735        2.5194372949       15.9776016735
  C         6.4183026677        8.4198971034       16.2809623742
  H        12.8213451085        4.9382536124        5.0144974135
  H        13.4665023976        5.5992914679        3.5445667657
  C        14.2043884855        6.6118488565        5.3749371166
  H         7.5796022862        5.6390619086        4.0112447565
  H         8.5160068046        5.0355166821        2.6877903953
  C         7.2012076906        6.7006513926        2.2205055398
  C        11.6228425266        0.8110285650        0.6584314540
  C        11.7701326905        2.9335067289       -0.4807322616
  H        13.2916208848        3.5160769963       15.7474556204
  H        13.6325161903        1.7721598406       15.7809233635
  C        12.5700206048        2.5254988104       17.4630506366
  H         6.2172550255        9.4596453113       16.2020002343
  C         6.2750726728        8.0193049076       17.5580513007
  H        13.7077470661        6.5031666489        6.3251063017
  H        14.3958916547        7.6260017152        5.1409443381
  C        15.4608546948        5.7181654518        5.2756448619
  H         6.8406440598        7.6328302665        2.6509878686
  H         7.9238667950        7.0943960376        1.4554385637
  C         6.0324467086        5.8735625551        1.6258418278
  N        11.4008933255       -0.1105483480        1.6643101937
  C        11.9144212203        0.1938305810       -0.5636215299
  C        12.1141066291        2.2392886021       -1.6448938522
  H        11.8351807856        3.9930406701       -0.4585805011
  H        12.4738397084        3.5383459427       17.9225829310
  H        13.2898041599        1.9491369110       17.9761434107
  H        11.7183578548        1.9574241397       17.6586963594
  S         6.1616033334        6.3374566978       17.9953344729
  C         6.0905451554        8.9250763646       18.7261042331
  H        15.2031990598        4.7051913057        5.7335849067
  H        15.8318404390        5.5968255816        4.3094526997
  C        16.5637979111        6.3355235626        6.1461736382
  H         5.6712374827        5.1720827879        2.3588519804
  H         6.3108888729        5.2359528526        0.7815221239
  C         4.8220607199        6.7737301427        1.3212154805
  S        11.4396480365       -1.6450480844        1.0395354474
  N        12.0236285200       -1.2263620934       -0.4350011743
  C        12.2355579580        0.8051278983       -1.7940723962
  H        12.3308522872        2.8193747730       -2.5457997369
  C         5.9069601786        6.8365116948       19.6625809680
  N         5.8362128160        8.1774847651       19.8402044539
  O         6.2696287218       10.1611688617       18.6642141233
  H        17.2536776761        7.0342487506        5.5919240558
  H        16.1060401847        7.0615982763        6.8552424184
  C        17.4603076845        5.2746974781        6.9109053049
  H         5.0110662387        7.4812795617        0.5752063826
  H         4.0487569839        6.1472321890        0.8111526621
  C         4.3230341274        7.3447322403        2.6201367394
  C        12.5112166286        0.0405957210       -2.9193964522
  S         5.7790423212        5.8668486027       21.1507032292
  C         5.9765951890        8.9228348654       21.1410126788
  H        16.8828470424        4.5444445162        7.4398696296
  H        18.0966897762        4.7304259349        6.1888266951
  C        18.3996338471        6.0814393185        7.7176302478
  H         5.0086502959        7.6497489581        3.3603977553
  H         3.8332591571        6.5100272724        3.0586598537
  C         3.3511620754        8.5085953056        2.4057954148
  H        12.0849996700       -0.9842052311       -2.7808486835
  C        13.0733063527        0.2604208749       -4.1558099135
  H         5.7394907698        8.2203054229       21.9741465836
  H         5.3429221262        9.8296733931       21.2441070197
  C         7.4337580154        9.3107911799       21.4450416718
  H        18.7101898376        5.4762341859        8.5123601292
  H        17.9660424092        7.0362709613        8.1404508392
  C        19.7318016174        6.3715889379        7.0199821220
  H         2.7114202008        8.3558661244        1.5315558284
  H         2.5509335423        8.5687561419        3.1729676906
  C         4.1297195781        9.8046842169        2.3756546663
  S        13.5002657050        1.8127572195       -4.7852391788
  C        13.1442015675       -0.8840999629       -5.0516174557
  H         8.1341940333        8.6994609578       20.9217737705
  H         7.5811508910        9.1674109620       22.5373102745
  H         7.6551000120       10.3361907704       21.2153692847
  H        20.2156251289        5.4478348886        6.8654509269
  H        19.6130944580        6.9285983487        6.0780296026
  H        20.4209611609        7.0278139445        7.6020291048
  H         4.6610014374       10.0312302286        3.3158279117
  H         4.8976163445        9.7702690663        1.6182729397
  H         3.3898961983       10.5702373030        2.2000338169
  C        13.8502485261        0.8991680506       -6.1968433582
  N        13.7191460349       -0.4205659631       -6.1751739930
  O        12.8444352395       -2.0692314468       -4.7379595552
  S        14.6211793579        1.7383393438       -7.6064798173
  C        13.7902674854       -1.1881378536       -7.4297953209
  H        13.9761171037       -2.2649636311       -7.2048845552
  H        14.7223349106       -0.9274306367       -7.8913967379
  C        12.6011729420       -0.9874499611       -8.3088813682
  H        12.5561627407       -0.1322698478       -9.0094557459
  H        11.6223100758       -0.8597085883       -7.8721270547
  H        12.4458848885       -1.8157535518       -8.8592697784
  H        -3.2862387378       15.0632313108       15.8487623116
  C        -3.2620478103       13.9665508044       15.9641874180
  H        -4.2511742996       13.5657323121       16.1964614072
  C        -2.2298248299       13.7566498530       17.1257466557
  C        -2.9857423306       13.2913421504       14.6173867251
  C        -2.8708605121       13.7525927107       18.5215193091
  H        -1.7833356231       12.7664848870       17.0431119272
  H        -1.5406892745       14.5830537941       17.0390465137
  H        -3.5918766407       13.8576510118       13.8518276645
  H        -2.0265076855       13.1751115864       14.2027455524
  H        -3.4207243325       12.3112428950       14.6264326164
  C        -1.8529934664       13.3130179067       19.6520291210
  H        -3.5835717687       12.9690115657       18.5363812327
  H        -3.5386595425       14.5911343973       18.7129492203
  C        -2.2969360967       13.7428083533       21.0529018258
  H        -1.6924499140       12.2866831094       19.4344716035
  H        -0.9286094069       13.7473953688       19.3943175422
  C        -1.2650901806       13.2356609009       22.0796766663
  H        -3.2425085797       13.2002677840       21.2305127900
  H        -2.3680722018       14.7890674023       21.1622617044
  C         0.0367397970       14.0289653921       22.2851733872
  H        -1.7895707405       13.1547098551       23.0176594877
  H        -1.0267572721       12.2152924430       21.7603537688
  C         1.1896715006       13.3018586811       23.0397963811
  H         0.4228834421       14.1800082239       21.2676446421
  H        -0.0680871544       15.0229832124       22.7548169580
  C         1.5225543009       11.9019389270       22.3661038868
  C         0.7509400985       12.5918875080       24.3231124633
  C         2.4479005200       14.1474551130       23.1316373708
  C         1.2803938227       10.8631135662       23.1711270915
  C         1.8943712090       11.4939850425       21.0743398684
  C         0.8698344612       11.2475418231       24.4897238425
  C         0.2201050831       13.1877383481       25.4295194457
  H         2.6514077897       14.5168955040       22.1609551890
  H         2.2571913338       15.0643165336       23.7354522676
  C         3.7548768616       13.4684771173       23.5259597007
  S         1.5384898964        9.2695315189       22.3941550695
  C         1.9823147454       10.1168767657       20.9551869631
  H         2.0909434313       12.2942851020       20.3075199963
  C         0.4396900634       10.6550008648       25.6074716014
  H         0.0929670180       14.2424739171       25.3917665920
  C        -0.1035337788       12.6018828295       26.6181770921
  H         3.9648652471       12.5950092806       22.8538388684
  H         3.6128964401       13.0822580354       24.4868893736
  C         4.9319402039       14.3412407364       23.7451483077
  C         2.5130201603        9.3742271366       19.8067717006
  C        -0.0824577678       11.2421993723       26.7837342548
  H         0.5004685368        9.5275770459       25.5983735807
  C        -0.5499217510       13.0069483422       27.8542692282
  H         5.7561550544       13.7944292889       24.1642231702
  H         4.5147372301       15.0790334646       24.4465423235
  C         5.5097679760       14.9658232478       22.4702927064
  C         2.4100832278        7.9476838361       19.5354417562
  C         2.8157992287       10.1667437842       18.5870548288
  C        -0.5303926918       10.5778655601       28.0580459816
  C        -0.7990242394       11.9378522874       28.6955275139
  S        -0.8402515706       14.5147195140       28.5173682549
  H         6.1904884001       15.6950344803       22.8471595925
  H         4.7060287872       15.4655543153       21.8563705130
  C         6.2890892754       14.0595907759       21.5003786734
  N         2.0284597276        6.9281894393       20.4428289646
  C         2.6742357653        7.4092495577       18.3168390294
  C         3.0142194529        9.5956507923       17.3643943356
  H         2.8397642847       11.2362894483       18.4990533218
  C         0.6692627173        9.8620089283       28.7932482980
  C        -1.8242119845        9.7344600969       27.9448267595
  C        -1.2573670202       12.3657030256       29.9806087666
  C        -1.2545219197       13.7805315046       30.0652139809
  H         7.1580020835       14.5371347554       21.0919841805
  H         6.7004257235       13.2377753121       22.0414245437
  C         5.3814929494       13.5755284785       20.3336759537
  S         1.9232174536        5.5169573318       19.6436141956
  N         2.5175774171        6.0664170777       18.1926106740
  C         3.0351849934        8.1602055633       17.1962482114
  H         3.1030495151       10.3098822430       16.5165928212
  H         1.2768531089        9.3598576721       28.0254103778
  H         0.4360012731        9.0430179703       29.4486755309
  C         1.7404323727       10.7291720833       29.4081415299
  H        -1.7274974537        8.9998622862       27.1732807292
  H        -1.8654066425        9.0742647960       28.8006644559
  C        -3.0702012200       10.4952159641       27.5173045422
  H        -1.3922022048       11.6934434843       30.8068109774
  C        -1.6354353684       14.4944464285       31.3623694654
  H         4.4071156067       13.9452413323       20.3545221688
  H         5.2052930338       12.5860796145       20.4574239551
  C         6.0136562559       13.8995706410       18.9147840059
  C         3.1334533653        7.6205475317       15.8654113732
  H         2.1609884165       11.3321730916       28.6300773329
  H         1.3590978711       11.5409849666       30.0356139860
  C         2.9134691412        9.8859819324       29.9150774037
  H        -3.0607075798       11.0927351108       26.6546931795
  H        -3.3762651015       11.2521214790       28.2055888608
  C        -4.2137232511        9.4794378979       27.3645420529
  C        -1.5925313749       15.8984896964       31.5232519199
  C        -1.7650989799       13.7005054798       32.6336009436
  H         5.5267813292       13.3683290365       18.1284784841
  H         5.9737510833       14.8770787559       18.5758633135
  C         7.5043929054       13.5387198479       18.7380353827
  H         3.0945299451        6.5465499086       15.9241533648
  C         3.3205611603        8.0643244646       14.5777137673
  H         3.2493051020        9.1776365806       29.2515048975
  H         2.4454684725        9.3590828855       30.7334654391
  C         4.1980898036       10.6439270152       30.4223640026
  H        -4.0623204604        8.8257842224       26.4831148059
  H        -4.2075013709        8.8478671120       28.2504508809
  C        -5.5478167408       10.2151155483       27.3463643091
  N        -1.2526045649       16.9316134509       30.5553268748
  C        -1.9077148342       16.5138465571       32.7408690034
  C        -2.1149633849       14.3091696700       33.8133059686
  H        -1.6986122056       12.6357393743       32.6305881829
  H         7.8152334367       13.3685735516       17.7799528380
  H         8.2695483543       14.2122854765       19.1657397453
  H         7.5777786575       12.5655250560       19.2803968454
  S         3.4921129431        9.6846511400       13.9850963120
  C         3.3789697791        7.0422497203       13.5048155146
  H         4.1159615747       11.5700548754       29.8109515912
  H         4.1050635797       10.8836978631       31.4765603413
  C         5.3634962645        9.6508335167       30.2040331065
  H        -5.6747380796       10.9634345707       28.1521418779
  H        -6.3807431512        9.4651903996       27.4787049199
  C        -5.7992284912       10.9312347523       26.0267267097
  S        -1.5826329311       18.4174721618       31.1240733067
  N        -2.0530484481       17.9134270220       32.6489171185
  C        -2.2042341234       15.8224650696       33.9050558296
  H        -2.2829590816       13.7413941733       34.6818203328
  C         3.9871261128        8.9301992910       12.4642267834
  N         3.9115128302        7.5783261993       12.3714105878
  O         3.1690543851        5.8427553780       13.6823584582
  H         6.2945816608       10.2016559701       30.3773552465
  H         5.3768505775        9.2539025086       29.1601933926
  C         5.3772098845        8.4265869087       31.0908267377
  H        -5.2903724673       11.9113886265       26.0953068859
  H        -5.2977104502       10.4730806433       25.1848530405
  C        -7.2348620363       11.2798409865       25.7627848945
  C        -2.3896639092       16.5942744494       35.0855116384
  S         4.6443538797        9.8182368927       11.0565464099
  C         4.0928141261        6.8141553327       11.1515967722
  H         5.4653516477        8.7170993925       32.1472805201
  H         4.4002638266        7.8856750829       31.0783445826
  C         6.5395254677        7.3459284062       30.7580382690
  H        -7.2879948573       12.3267931301       25.4566496336
  H        -7.8304672900       11.2580195007       26.7271748083
  C        -7.9671664287       10.3744415573       24.7323748969
  H        -2.3904510171       17.6688922743       34.8864073941
  C        -2.7318601880       16.2411217498       36.3525886643
  H         5.0439167685        7.0473384602       10.6130919700
  H         4.1706422497        5.7367121056       11.4738160892
  C         2.8355600602        6.7369082433       10.2728590924
  H         7.4849628479        7.5883836321       31.1768792155
  H         6.6911574832        7.2492698077       29.6779737131
  C         6.1400838352        5.9200750537       31.2227261515
  H        -8.0110652735       10.7771653990       23.7818007276
  H        -7.3592102171        9.4836281742       24.6910276078
  C        -9.4176713093       10.0796687106       25.0211917905
  S        -3.0898139188       14.7063680865       36.9207867669
  C        -2.9555858699       17.4004573140       37.2931251707
  H         2.4128123622        5.7385601423       10.2754796739
  H         2.1131477421        7.5325820837       10.5991588683
  H         3.1695382880        6.9656349847        9.2783324671
  H         5.9608864070        5.9049195816       32.2421704516
  H         7.0072301975        5.2880465200       31.0231878916
  H         5.2231382577        5.6723556178       30.5870898639
  H       -10.0304718488       10.9864490317       25.2576404111
  H        -9.6536238570        9.3071398886       25.6979956451
  H        -9.8717298378        9.7460846939       24.0884440801
  C        -3.5209039463       15.5196930174       38.4447061885
  N        -3.4071745045       16.8771502916       38.4270851340
  O        -2.5512774310       18.5653994473       37.0817126892
  S        -4.2264788204       14.6982170420       39.8836131112
  C        -3.6868957281       17.6491781378       39.6355179032
  H        -3.9787088727       18.6788307755       39.2972356193
  H        -4.5903000008       17.3250570295       40.2047747967
  C        -2.5428962048       17.6930462360       40.5550548481
  H        -1.6425939370       17.9454079928       39.9449365942
  H        -2.6688310799       18.4005930000       41.2995134411
  H        -2.3257466753       16.7499989197       41.1368529696
