352
i=
  H         4.0579089525        1.5655082626       12.4088999926
  C         3.4572886412        2.4739965180       12.5341883222
  H         4.2155430285        3.2063750623       12.6961740346
  C         2.6280794629        2.7201026823       11.2084538337
  C         2.6181288482        2.5173130010       13.7594196166
  C         3.6080836597        2.9230176120        9.9711154419
  H         2.0953510098        3.7158195271       11.3157147992
  H         1.9401841461        1.8668627309       11.0316898256
  H         2.4194181883        3.5680771382       14.0454428706
  H         3.0656926739        2.1056947048       14.6383561312
  H         1.6855174515        2.0701052766       13.5937078134
  C         4.0319017375        1.5471705742        9.5327332784
  H         3.2347816834        3.2573806051        9.0454739642
  H         4.4155159963        3.6045132800       10.3439573550
  C         4.8310842647        1.4951416761        8.3028351005
  H         3.1144943235        0.9807744218        9.3536368056
  H         4.4361515604        0.9798628078       10.3972806567
  C         6.1393873166        2.2511647838        8.3268741294
  H         4.1454321099        1.8833027296        7.5121066104
  H         5.0922677009        0.4205819221        7.9989508749
  C         7.2648327829        1.5025651349        9.0743214433
  H         6.5262388731        2.4792267966        7.3685381065
  H         5.9410954932        3.2115682270        8.7356462469
  C         8.6135527815        2.3541602084        9.2625630580
  H         7.4678258268        0.6440640172        8.4875839278
  H         6.8052219111        1.0551231290        9.9411926383
  C         8.2359645024        3.6690880632        9.9590528507
  C         9.1071823192        3.0442981822        8.0269369244
  C         9.7775524285        1.7048401270        9.9129362239
  C         8.5619599023        4.7265470606        9.2010510287
  C         7.7599633391        4.0153904206       11.2501853008
  C         8.9804435295        4.3697163764        7.9337861774
  C         9.6643940357        2.4908405213        6.9083329480
  H         9.3042694739        1.3365407406       10.8223857842
  H        10.1241103416        0.7793729607        9.4637809528
  C        10.9949029352        2.5901377858       10.1379647663
  S         8.2831763468        6.1846081599       10.0508048443
  C         7.8860292893        5.3637893726       11.4825001816
  H         7.3693095632        3.3201946041       11.9756371896
  C         9.4604633179        4.9518587197        6.8033041334
  H         9.7997978788        1.3862838579        6.9405386665
  C        10.0794209608        3.0582714961        5.7709502155
  H        10.8263858523        3.5993824721       10.4058870326
  H        11.4958260449        2.5356979114        9.2148131173
  C        11.8907686047        1.8525691592       11.1543708736
  C         7.5355107107        6.0820449058       12.7583438737
  C        10.0460116354        4.3982920509        5.7084036054
  H         9.4541815186        6.0797840370        6.8513648824
  C        10.5775281123        2.6605382987        4.5684802419
  H        12.8257693971        2.3258902221       11.2068596556
  H        12.0343923236        0.7808540401       10.8108282979
  C        11.4344118972        1.9181970102       12.6988363667
  C         7.6067116694        7.4733496231       12.9892165933
  C         7.0614065888        5.2899194030       13.8853156702
  C        10.6185629325        5.1000677259        4.5208151388
  C        10.8837652226        3.7457197733        3.8080616758
  S        10.9390042580        1.1823720379        3.8537143853
  H        11.5049616208        3.0111859811       12.9512811255
  H        10.3380740702        1.7738344850       12.7139340211
  C        12.1576283290        1.0600059449       13.7140116256
  N         7.9494239820        8.4000377926       11.9891396287
  C         7.2476587789        8.0512528791       14.2113729400
  C         6.7100346796        5.8649565098       15.1397259341
  H         6.9214321750        4.1733241104       13.8685395374
  C        11.8887700177        5.9369452415        4.7832570882
  C         9.5335030630        5.9089387839        3.7170941221
  C        11.4095961706        3.3543376837        2.5815073490
  C        11.5185585693        1.9709101096        2.4426678898
  H        13.2775660804        1.1279257481       13.4868771925
  H        11.9992481279        0.0179347009       13.7485718715
  C        11.8633854749        1.5253674453       15.1380684042
  S         7.9128374494        9.8676219186       12.7085706909
  N         7.4145129104        9.4165084438       14.2026285372
  C         6.9320137643        7.2952246170       15.3756602691
  H         6.2577272918        5.2689811878       15.8900054107
  H        11.7035959769        6.3621509300        5.7234501540
  H        11.9326589921        6.6952401262        4.0686870195
  C        13.2100053149        5.1931664123        4.8616500787
  H         9.2527827401        6.7980658906        4.3112103495
  H         9.9595615711        6.2334848965        2.7963380587
  C         8.2311168142        5.0878078583        3.4471673731
  H        11.6005016900        4.1052758337        1.8323870004
  C        11.8025274367        1.2904656193        1.1862384403
  H        11.3479719244        2.5096698323       15.1149107600
  H        11.1077835046        0.9291217821       15.5895609611
  C        13.1182755770        1.5038575780       16.0027041591
  C         6.7095921043        8.0197809434       16.6077873480
  H        13.1217228479        4.4682111366        5.6480630688
  H        13.5262801477        4.7120400978        3.9173233544
  C        14.2881014262        6.2515497434        5.3051236550
  H         7.8025211206        4.6343968152        4.3380685040
  H         8.4872185420        4.2143659059        2.8328103353
  C         7.2625634625        5.8996681849        2.5590688154
  C        11.8328559089       -0.1215148966        0.9639303210
  C        12.1958026719        2.0965390081       -0.0102315479
  H        13.8954006308        2.0858077781       15.5319832687
  H        13.5175963064        0.5134493524       16.1066674710
  C        12.8995887711        1.9920463284       17.3916885814
  H         6.3468524056        9.1055942484       16.4770278008
  C         6.2935838521        7.5532562012       17.8197764577
  H        13.9493386503        6.6382397432        6.2722173391
  H        14.3426574361        7.1032962237        4.5962222368
  C        15.7009701484        5.6923917968        5.3547829157
  H         7.1161154613        6.7513671564        3.1796411935
  H         7.6845592780        6.2688637580        1.6590182435
  C         6.0170478897        5.0368591270        2.1998674050
  N        11.5488836371       -1.0530304457        1.9963784157
  C        12.0910454048       -0.7749958510       -0.2597157013
  C        12.5224294294        1.4048381619       -1.1938164843
  H        12.1741151845        3.1730871656        0.0916424833
  H        12.9839890050        3.1182340876       17.4159551346
  H        13.5188799163        1.3905701150       18.1046068250
  H        11.8352442851        1.7665562826       17.6307727898
  S         5.9588296971        5.9146252256       18.3437503938
  C         6.0737502578        8.5168018350       18.9126458654
  H        15.6676365935        4.6686551441        4.9587046589
  H        16.3822379979        6.2316168422        4.7374392403
  C        16.2491616612        5.6970527435        6.8283157367
  H         5.4281956982        4.8079000747        3.0602798680
  H         6.3661972931        4.1814720320        1.7144391358
  C         5.0628507029        5.8567921421        1.2268656255
  S        11.5127359400       -2.5256266482        1.3126122556
  N        12.0475113888       -2.1260931352       -0.2090970325
  C        12.5077472478       -0.0225087406       -1.3590218215
  H        12.7957995071        1.9835768042       -2.0894972209
  C         5.6786689099        6.5968699619       19.9880600609
  N         5.7527517475        7.9194420797       20.0605529939
  O         6.3012303524        9.7300788633       18.8006950475
  H        16.3917393448        6.7250525117        7.2477403123
  H        15.4863010385        5.2381283500        7.4838187785
  C        17.5587952225        4.8799593601        6.9024216048
  H         5.4279382413        5.9814442837        0.2072366295
  H         4.1922262721        5.2010355491        1.0282886752
  C         4.3713205474        7.0734584625        1.8016369185
  C        12.7481887061       -0.6371586889       -2.5961567280
  S         5.2903355315        5.5641048231       21.3475414647
  C         5.8740523435        8.7080512683       21.2713208007
  H        17.6513927987        4.4430804455        7.8818424759
  H        17.3115018354        4.0355828233        6.2368551348
  C        18.7835228236        5.7461494942        6.4453554911
  H         4.8429985531        7.4090322180        2.6932696981
  H         3.3431975306        6.8789938108        2.1994566156
  C         4.2870466710        8.2376752020        0.8115996475
  H        12.5544002863       -1.7127053455       -2.5148088070
  C        13.2861245262       -0.2009071617       -3.7653010434
  H         5.1969490939        8.3661956420       22.0447668506
  H         5.5472772243        9.7020453460       21.1265201985
  C         7.3155556645        8.5727664574       21.7751984121
  H        19.4589838921        5.9056210203        7.3276158241
  H        18.5105727225        6.7199473888        6.1449759630
  C        19.6193876643        5.1583639836        5.3133314118
  H         4.8810352517        7.9430970455       -0.0844804658
  H         3.1987484333        8.4068477720        0.6204466521
  C         4.8851210686        9.4741473608        1.3945226051
  S        13.8630390049        1.3412454967       -4.3082796013
  C        13.2834252398       -1.2595270040       -4.7677425700
  H         7.9354188464        7.9328920053       21.0974147192
  H         7.5198619067        8.2778024730       22.7707582492
  H         7.8705420272        9.5063518213       21.6753626124
  H        19.0891735607        5.1860224391        4.3838272934
  H        20.6356851423        5.5919406012        5.3254969914
  H        19.6962101983        4.1124196426        5.5273693413
  H         5.9285105878        9.2546644344        1.6554318816
  H         4.8031002137       10.3064722525        0.6675870559
  H         4.3540462079        9.7993187766        2.3209323168
  C        14.2584978985        0.5038993663       -5.8684761834
  N        13.9279223012       -0.8122201102       -5.8628226832
  O        12.8872305281       -2.3854900064       -4.5496216349
  S        15.1970983920        1.1204901592       -7.2251663735
  C        14.0273689021       -1.6236808189       -7.0823900396
  H        13.7377572159       -2.6937023116       -6.8744419295
  H        15.0275325342       -1.6174142937       -7.5752566390
  C        12.9151690264       -1.1547293627       -8.0291029410
  H        13.3697169449       -0.4239001529       -8.7475561860
  H        12.0194517994       -0.8647996943       -7.5474152320
  H        12.6853290655       -1.9055317513       -8.7221864838
  H        -3.6068866637       14.8027740770       16.3776308315
  C        -3.3464716152       13.6874797112       16.2837387492
  H        -4.2161507457       13.2288601068       16.7161841031
  C        -2.2146302229       13.4099581266       17.2500056390
  C        -2.9998149414       13.3560014376       14.8900957589
  C        -2.4925908133       13.8830722394       18.7222443197
  H        -2.1763598908       12.3592547682       17.4121626353
  H        -1.2107171268       13.7414315512       16.8720220105
  H        -2.1146120582       13.9450355283       14.5332850784
  H        -2.8537485197       12.2935926998       14.7339566935
  H        -3.9062342575       13.5859211666       14.2615934186
  C        -1.9232775754       12.8763644680       19.7179730444
  H        -3.5118774327       14.1301237754       18.9750549318
  H        -1.9409078811       14.8016146477       18.9172819048
  C        -2.4128876215       13.1766617148       21.1533655442
  H        -2.1981455360       11.8528418017       19.5012797284
  H        -0.8514631934       12.9316818195       19.6816987484
  C        -1.4348646305       12.5428349068       22.1737419179
  H        -3.4040120043       12.8482656086       21.3933214850
  H        -2.5790789708       14.2265242838       21.3314918263
  C        -0.1218211997       13.4388327662       22.3207677704
  H        -2.0298547727       12.5240267281       23.0647980475
  H        -1.1261089816       11.5689745799       21.9193739328
  C         1.0632878370       12.7341938009       23.0182336013
  H         0.2605658282       13.8259309924       21.3769113210
  H        -0.3229612380       14.3546612877       22.8755789382
  C         1.4936833625       11.4267960430       22.4029331887
  C         0.6067511592       12.0056571192       24.2340353255
  C         2.3003561853       13.6655690968       23.2972165412
  C         1.3279134041       10.2850032010       23.1534606491
  C         1.9111694501       11.1228539271       21.0957324697
  C         0.7108502456       10.6922867098       24.3426387850
  C         0.2112112208       12.6362059588       25.3672999538
  H         2.5219521327       14.0959513610       22.3545243112
  H         2.0287197335       14.4256214056       24.0011246672
  C         3.4569556200       13.0116899870       23.9265942120
  S         1.6610534226        8.8527506103       22.2653459107
  C         2.1476030024        9.7924015572       20.9126458157
  H         2.1286780270       11.9603093728       20.4052889466
  C         0.3122888801       10.0641756654       25.5193831835
  H         0.0738466545       13.7019351619       25.2541919535
  C        -0.2042548405       12.0053194757       26.5785195108
  H         3.8378238858       12.1264337170       23.4484532564
  H         3.1573506923       12.7276121130       24.9014367952
  C         4.6934398880       13.9732587856       23.9360164985
  C         2.5688154527        9.0893176113       19.6505512691
  C        -0.1470861925       10.6648978741       26.7157421345
  H         0.2776843195        8.9569791398       25.4196106118
  C        -0.6542324644       12.4186648853       27.7961283593
  H         5.4886960950       13.4162229086       24.4193881039
  H         4.4682282835       14.8435598302       24.5844485751
  C         5.3146398497       14.3266906889       22.5971053803
  C         2.6439875450        7.6929225681       19.3310396124
  C         3.0579374466        9.9738261348       18.5587123897
  C        -0.6019256460        9.9525230336       27.9549356675
  C        -0.8552834431       11.2924840603       28.6436109049
  S        -0.8806302390       13.9617227495       28.6122106782
  H         6.1000565354       14.9538910767       22.9830175291
  H         4.5857529737       14.9843276153       22.0248117203
  C         5.9302704828       13.1579201612       21.8534905073
  N         2.2944728508        6.6263152411       20.1768703235
  C         2.9140172505        7.2411632276       18.0926003082
  C         3.2641585326        9.4885451555       17.2847798248
  H         3.2431381986       11.0059822792       18.7933449937
  C         0.5263761158        9.1982678689       28.6012312274
  C        -1.8236667273        9.1168718035       27.7453897440
  C        -1.2817414764       11.7418042155       29.9273147511
  C        -1.4046171373       13.1144941236       30.0330524620
  H         6.9618463736       13.3848578215       21.6894837541
  H         6.0728108163       12.2825509892       22.5308178516
  C         5.1585254067       12.7700553642       20.5690128753
  S         2.0682919196        5.2676939158       19.2792180857
  N         2.7275726666        5.8262659509       17.9023461152
  C         3.1630138478        8.0744133659       16.9696607924
  H         3.7750074197       10.2105972136       16.5870087357
  H         0.7081236685        8.3416818709       27.9801442495
  H         0.0916316066        8.6056209705       29.4238934420
  C         1.8340986713        9.9369049103       28.8939365401
  H        -1.5118167512        8.2118284720       27.1929880250
  H        -2.1622429776        8.7884201155       28.7114623112
  C        -2.9127319693        9.9057092381       27.0315637424
  H        -1.6549768548       11.0704365956       30.6704204835
  C        -1.6392248779       13.8234874963       31.2820389318
  H         4.1438715687       12.6512738102       20.9932547784
  H         5.4470995329       11.6993047735       20.3557212287
  C         5.3975171836       13.7506131294       19.3758552164
  C         3.4990168304        7.4719572768       15.7384013463
  H         2.2858774474       10.3261290393       27.9479863503
  H         1.6695825044       10.6833565236       29.5897688631
  C         2.8565709542        8.9626580232       29.4517610661
  H        -2.5728805048       10.4827097131       26.1728325564
  H        -3.4178939807       10.6548482884       27.6588015036
  C        -4.0732243801        8.9873783813       26.7870866033
  C        -1.6957760168       15.2511158411       31.5001237698
  C        -1.7439887936       13.0148575563       32.5462655456
  H         4.6073062320       13.7627462748       18.7469351846
  H         5.2248401916       14.7425010037       19.8228690884
  C         6.6856606901       13.4660761941       18.6640798637
  H         3.2398536029        6.4699193172       15.5712905009
  C         3.7952070458        7.9112815139       14.4609507682
  H         3.3977379934        8.4438216288       28.6664288621
  H         2.3872642309        8.1033743677       29.8848505659
  C         3.7486903988        9.7252457858       30.4676382382
  H        -4.0078718628        8.4064402240       25.8621435369
  H        -4.1104465426        8.3442592301       27.6454534667
  C        -5.3437151156        9.8317924713       26.7380522719
  N        -1.5893552115       16.2032907721       30.5449344095
  C        -1.8625976371       15.7933140263       32.8061805943
  C        -1.8860313821       13.5707778396       33.8161828683
  H        -1.7794656086       11.9220231957       32.4646438287
  H         6.8464503152       12.3887742405       18.4478715132
  H         6.7434632933       14.0930728326       17.7738158077
  H         7.4760499654       13.6476528624       19.3898090963
  S         4.0897151717        9.5424155832       14.1261110134
  C         3.8390954000        6.8873911274       13.3603745714
  H         3.9759227211       10.7749513091       30.1308776822
  H         3.3262097140        9.8279243846       31.4510138731
  C         5.2022713197        9.1321062344       30.5094148969
  H        -5.1137149876       10.6803575763       26.1565749328
  H        -5.6575751423        9.9648859954       27.7998782300
  C        -6.4684644889        9.1519099415       25.9808699044
  S        -1.6232403275       17.6344314423       31.2434183710
  N        -1.9241699617       17.1593056887       32.8157054478
  C        -2.0131712663       15.0016098668       33.9592189338
  H        -1.9596453287       12.9121914439       34.6926772045
  C         4.3410295830        8.9472936123       12.4807163209
  N         4.1561458700        7.6023715087       12.2289168501
  O         3.5920817414        5.6563003193       13.5173868228
  H         5.7388472155        9.7431092248       31.2396474336
  H         5.6209509770        9.2886071374       29.3976975621
  C         5.1941691589        7.6763557811       30.9889853214
  H        -6.0903972038        8.6915578738       25.0876713513
  H        -6.9270824679        8.4017490301       26.5827225152
  C        -7.4686534516       10.1224835806       25.3243358179
  C        -2.1941261042       15.6463422741       35.2130256785
  S         4.7880064306       10.0506484632       11.1660319260
  C         4.1503864051        6.9454942103       10.8858246284
  H         5.3494848804        7.7326472252       32.0240944242
  H         4.2713594635        7.0988175726       30.7203989983
  C         6.3909731635        6.8168982041       30.4846376961
  H        -7.2827106788       10.4938919595       24.3232746618
  H        -7.6866670755       10.9839342862       26.0012485214
  C        -8.7970948435        9.4138591266       25.1370133437
  H        -1.8930863545       16.6779925491       35.1663526185
  C        -2.6447716399       15.2334198816       36.4270928143
  H         4.7885317085        7.4648311485       10.1868487325
  H         4.7140565680        5.9925627676       10.9966887544
  C         2.7395663729        6.7841392351       10.2715015507
  H         7.3241745633        7.3955603426       30.5748891662
  H         6.1231861764        6.3452537863       29.4975649619
  C         6.4247668943        5.6563010983       31.4584573808
  H        -9.3007806130        9.7407450319       24.2293295054
  H        -8.5604567713        8.3799719636       24.8773080529
  C        -9.6542672695        9.4765281152       26.3529198831
  S        -3.3651175026       13.7026666695       36.8746104544
  C        -2.7393280706       16.2752574704       37.4035159310
  H         2.0327105801        6.0052621028       10.6159551606
  H         2.1923865364        7.7098649539       10.3904424406
  H         2.7891675605        6.7244628403        9.1985672145
  H         5.4395011505        5.4097399678       31.8690178504
  H         7.1364276929        5.8824485787       32.2714963683
  H         6.8301220707        4.7880186292       30.9239882467
  H       -10.6754161029        9.6365654564       26.0533565637
  H        -9.4065501402       10.3232090895       26.9825251881
  H        -9.4830162363        8.6253349414       27.0421197037
  C        -3.7687696298       14.5127933964       38.4047151576
  N        -3.5021941413       15.8494296261       38.4597083989
  O        -2.2304175463       17.4268669513       37.2118934283
  S        -4.5019379223       13.8173401039       39.8555664990
  C        -3.6104045335       16.7231589779       39.6083234860
  H        -3.3932677719       17.7570657158       39.3060740418
  H        -4.5697123649       16.7086547930       40.1471908990
  C        -2.4676204868       16.4125848123       40.4869179490
  H        -2.0224349923       15.4646239528       40.3938173984
  H        -1.6178483145       17.1549461877       40.5388140883
  H        -2.9332377973       16.4416357852       41.4482397523
