352
i=
  H         2.9543818061        1.7256951741       13.5401008015
  C         3.7739408516        2.3712449606       13.1871444318
  H         4.7201135651        1.8056377845       13.1505536038
  C         3.4721839870        2.8712754061       11.7658203876
  C         3.9019422021        3.4495947200       14.2583471794
  C         4.6748138173        3.0833141382       10.7948090101
  H         2.9455545203        3.7836088026       11.7662524903
  H         2.7567062681        2.1741677338       11.2950734000
  H         4.1778818067        3.0861488084       15.2288975222
  H         3.0057407377        4.1087705630       14.3210823895
  H         4.7510016172        4.0937775754       14.0217893308
  C         4.6809644546        1.8679088647        9.7661543647
  H         4.6353914471        4.0491243787       10.3392874221
  H         5.6138421269        3.0756631299       11.4253866198
  C         5.6643370145        1.8115407618        8.6014760175
  H         3.6540171532        1.7801717967        9.3683713882
  H         4.8823306744        0.9657757529       10.3594613917
  C         6.9312334177        2.6842049948        8.7282325049
  H         5.1543220956        2.0754824137        7.7209006832
  H         6.0091132170        0.8087119478        8.2205918100
  C         8.1000374491        2.0100025666        9.4324779264
  H         7.3652061737        2.8713695037        7.7951079390
  H         6.6587516814        3.6380419223        9.1585911636
  C         9.3631623241        2.8564280727        9.5729370213
  H         8.4116636573        1.0072744832        9.0202386151
  H         7.7071682169        1.7720751389       10.3797470593
  C         9.0141330221        4.2716319377       10.2597055406
  C         9.7372597907        3.5415493374        8.3058019489
  C        10.5901387156        2.1657315829       10.2847176008
  C         9.0965409834        5.3451743125        9.3881622547
  C         8.4132328461        4.6409242958       11.4411990340
  C         9.6460639048        4.9319350362        8.2036773289
  C        10.0914339927        2.9584507499        7.0874271106
  H        10.2673364302        1.5923125413       11.1907951666
  H        10.7875096445        1.2942127869        9.6787475410
  C        11.8144519684        3.0257829312       10.7016458847
  S         8.6725896590        6.8920233724       10.0621739106
  C         8.1275702821        6.0223490022       11.4767160785
  H         8.3760868860        3.8954382455       12.2353204614
  C         9.9966317615        5.6014769520        7.0303725247
  H        10.0442669120        1.8451734195        7.0290732330
  C        10.4001633337        3.6472857752        5.9299400736
  H        11.6289644157        4.0421976699       10.9067369094
  H        12.5079886010        3.0486381080        9.8471349110
  C        12.6184584329        2.3475677874       11.8116844090
  C         7.5715259577        6.7044004111       12.6589556289
  C        10.4669541631        4.9752096102        5.8624520000
  H         9.8290850126        6.6939826349        6.9647631009
  C        10.7484345400        3.2519342729        4.6534781495
  H        13.6724556307        2.5556512427       11.6291776470
  H        12.5206591190        1.2999090266       11.8417611510
  C        12.1483919970        2.8776600467       13.1619445796
  C         7.7442187838        8.0583240713       12.9750301413
  C         7.1948378797        5.8121774106       13.7618387402
  C        10.8613551164        5.7179415857        4.5960367066
  C        10.9778530811        4.3705370908        3.8549606432
  S        10.9625969711        1.7998520182        3.8228245378
  H        12.6583317743        3.8384424990       13.3844896968
  H        11.1137146775        3.1335498386       13.0868442172
  C        12.2921352762        1.8888957129       14.3172395285
  N         8.2237068063        9.0393227646       12.1196593417
  C         7.5789583749        8.5500865849       14.2596708117
  C         6.8621511761        6.3389248995       15.0066410680
  H         7.0453445340        4.7491619590       13.5890630118
  C        12.1834669049        6.4154026688        4.8565117748
  C         9.7023642591        6.5559030418        3.9305324836
  C        11.3572361081        4.0437580815        2.5274474453
  C        11.3438335193        2.6718037207        2.4258263977
  H        13.2345990425        1.4260065881       14.2333532557
  H        11.5177135485        1.0935585542       14.1382037574
  C        12.1769871404        2.3839807987       15.7602488206
  S         8.1801726814       10.5175894886       12.8448392235
  N         7.7136280239        9.9361510576       14.2883309477
  C         7.0718884455        7.8029364177       15.3259204549
  H         6.6494714088        5.5405041650       15.7068821112
  H        12.0556575579        7.2903772299        5.4427576962
  H        12.4481477500        6.7513766741        3.8626883837
  C        13.3623368314        5.6298395639        5.3355806593
  H         9.5546400465        7.3379987860        4.6272495372
  H         9.8814304987        7.0165979240        2.9843448879
  C         8.2790792297        5.9391403504        3.9265820314
  H        11.5529745831        4.8245399053        1.7858039897
  C        11.6208871343        1.9945091654        1.1381524585
  H        12.5064129367        3.3901085032       15.9265542533
  H        11.1691184836        2.4417602483       16.0116286292
  C        12.9118387802        1.5151199457       16.7622731828
  C         6.9091702228        8.4701969806       16.5924487990
  H        13.3754078555        5.3614893609        6.4098886444
  H        13.3612680087        4.6225200109        4.8289058504
  C        14.6650593942        6.3635715603        5.1127540625
  H         7.8009151646        6.0957478762        4.8427129408
  H         8.3118299310        4.8385168658        3.7297907129
  C         7.4178102558        6.7145809032        2.8607082465
  C        11.6530458249        0.5469810013        1.0288235712
  C        11.8927087591        2.6526525760       -0.1587161475
  H        13.6066774890        0.8490552951       16.2692811932
  H        12.0516026564        0.9568446687       17.1285934430
  C        13.5517492221        2.4525018150       17.7855098813
  H         6.6909848364        9.5457171115       16.5635891447
  C         6.6423197184        8.0440556525       17.8559022676
  H        14.5065902321        7.4160257087        5.2820455800
  H        15.0038072672        6.3059292883        4.0332481415
  C        15.7846758974        5.8026540310        5.9578913982
  H         7.2991741273        7.7029430693        3.2475780922
  H         8.0814714406        6.6920415750        1.9651246978
  C         6.0220377864        6.0325155129        2.7777443754
  N        11.4808638679       -0.3797903216        1.9969984022
  C        11.9786270916       -0.0983758620       -0.1611690061
  C        12.1934000416        1.9692718097       -1.3327274914
  H        11.7646677774        3.6762298841       -0.2192659069
  H        13.8515175759        1.9324052198       18.6723732909
  H        12.7933160123        3.1795030857       18.1355086390
  H        14.3992447673        3.0257488314       17.3207342031
  S         6.4182590903        6.4400882708       18.2981042154
  C         6.5306052597        9.0991049916       18.8140248651
  H        15.9549121746        6.4038236850        6.8713813629
  H        15.6266356942        4.7910774334        6.2178265439
  C        17.0927501750        5.9536524687        5.1824615559
  H         6.0525147595        5.3916770202        3.6599632308
  H         6.0398827497        5.3316798701        1.9016562834
  C         4.8274464191        6.9637836109        2.8036489684
  S        11.3691724849       -1.8662032236        1.4172334289
  N        12.0891696912       -1.5099958612        0.0172448223
  C        12.2677002995        0.4979742790       -1.3654295095
  H        12.2169166060        2.4931232756       -2.2852368365
  C         6.2775892775        7.1119906636       19.9236937961
  N         6.3409701364        8.4944799906       20.0204309397
  O         6.7015008788       10.3126462280       18.6918304592
  H        16.9546007923        5.4922336048        4.2312305964
  H        17.2508340012        7.0191557323        5.0850590497
  C        18.2190434959        5.3185873717        5.9551709686
  H         3.9811377163        6.3710906554        3.0225675230
  H         4.8287608705        7.6548655468        3.6912495622
  C         4.7222877815        7.7278691143        1.4779375988
  C        12.5705954774       -0.2290737134       -2.5298913167
  S         5.9866943642        6.2550502011       21.3628386969
  C         6.3674079408        9.2107122916       21.2590343282
  H        17.8663575868        4.4217547779        6.4840564646
  H        18.9936295312        5.0629399363        5.1686769341
  C        18.8365278457        6.2614230621        6.9484350209
  H         4.3988239552        7.0468464374        0.6898877724
  H         5.7513737392        8.0476890244        1.1580581317
  C         3.7477428999        8.9407464346        1.5250238518
  H        12.3379300404       -1.1971418660       -2.3942461966
  C        13.0224851275        0.1248296756       -3.8001585707
  H         5.5893139766        8.9528737012       22.0373067475
  H         6.1730736953       10.2188817883       21.0651412890
  C         7.7581490690        9.1910091091       21.9521232827
  H        18.0625754980        6.7760426531        7.4176374709
  H        19.5062039931        7.0139829547        6.5056564921
  C        19.4996040260        5.5299831289        8.1143456686
  H         3.1329018471        8.9102003621        0.6479074864
  H         3.1198959394        8.9456804503        2.4273557347
  C         4.5813353990       10.1784737929        1.4426462947
  S        13.6800750411        1.6644829494       -4.3007244146
  C        13.0667965480       -0.9269570099       -4.8507916479
  H         7.6655097548        8.4189094162       22.7509407393
  H         8.0101765468       10.1172991989       22.5345163757
  H         8.5341492600        8.8868974586       21.1690413906
  H        18.8345059817        4.9020405618        8.7053014185
  H        20.2491547251        4.8719716655        7.6571921997
  H        20.0767943066        6.2639624838        8.6823904230
  H         5.3509205395       10.2810629202        0.6424479740
  H         3.8951178366       11.0257833480        1.3969758968
  H         5.0586717507       10.3556796751        2.4522253321
  C        14.0153340481        0.8445849677       -5.8536761446
  N        13.7335449466       -0.5008891889       -5.9063737352
  O        12.7701571633       -2.1155846971       -4.6276205471
  S        14.5346677468        1.6133604380       -7.3614274895
  C        13.8750633765       -1.3085156198       -7.1064727779
  H        14.1389877702       -2.3471262297       -6.7506953520
  H        14.7855808087       -0.9519451003       -7.6218270584
  C        12.6759213277       -1.3560731944       -8.0140392403
  H        12.7413991943       -2.1389321853       -8.7623930577
  H        12.5327028127       -0.3760613941       -8.5516656434
  H        11.7819157855       -1.6584842175       -7.4493946139
  H        -3.4310132378       15.1853698972       15.2118444434
  C        -3.4279995433       14.5263314618       16.0857971493
  H        -4.3564143113       14.5724924071       16.5868974714
  C        -2.3969652921       14.9376956543       17.1458869751
  C        -3.0585962896       13.1509583130       15.4466951266
  C        -2.7387997495       14.2135273629       18.4900721392
  H        -1.2978548864       14.8810393903       16.7372102918
  H        -2.4377185385       16.0862027783       17.3388985506
  H        -2.4364620467       12.4490807420       16.0350656180
  H        -3.9899958131       12.8143687252       15.0029251990
  H        -2.4849754537       13.4489089467       14.5927731403
  C        -1.6298107377       14.0587617747       19.5176524763
  H        -2.9912928081       13.1678023209       18.2134994040
  H        -3.6226070517       14.6587722404       18.9022812346
  C        -2.1446066050       13.6188942169       20.9457979327
  H        -0.7867128055       13.4611796639       19.1743427133
  H        -1.1699179026       15.0732904621       19.5764908376
  C        -1.0526246058       12.9816439921       21.7738774748
  H        -2.8274139006       12.7059889152       20.8709273347
  H        -2.8014247208       14.3665515941       21.4146592640
  C        -0.0697818332       13.9796567496       22.3273352926
  H        -1.4630199215       12.3445023731       22.4835875646
  H        -0.5422128678       12.3133100777       21.1327882570
  C         1.1144981570       13.2655529565       23.0829275672
  H         0.2528266372       14.7059039975       21.5784297697
  H        -0.6652836245       14.5266870382       22.9960931796
  C         1.5976464542       12.0181401663       22.3356900705
  C         0.8194577545       12.4730590630       24.3552607428
  C         2.3121746067       14.3541574676       23.1712855426
  C         1.4103002687       10.9009878524       23.1078886328
  C         2.1640011674       11.8080662960       21.1184606245
  C         1.0206612970       11.1684249347       24.4319171072
  C         0.3572121542       13.0451201605       25.5692549458
  H         2.5440071115       14.8462731338       22.2038060772
  H         2.0100044528       15.1584411971       23.8273622377
  C         3.5526855236       13.6851090907       23.7723516191
  S         1.9245578063        9.5145440245       22.2609628958
  C         2.3740387002       10.4973490126       20.8910076733
  H         2.4157153554       12.6816168896       20.4977276920
  C         0.8355560218       10.4633873519       25.6452127156
  H         0.2103648979       14.0883675231       25.5472696558
  C         0.1619500201       12.3573376977       26.7527586868
  H         3.7000607781       12.6415059601       23.4516564984
  H         3.4033462650       13.6578682616       24.8045798996
  C         4.9761139190       14.2544959508       23.6543644816
  C         2.9098847656        9.8960335796       19.6190858992
  C         0.3540226067       11.0347188775       26.8472475992
  H         1.0457580744        9.3633093734       25.5950787467
  C        -0.2686489553       12.7031547331       28.0479005361
  H         5.6572661590       13.6702099693       24.1751733704
  H         5.0248668574       15.2276545703       24.0914884188
  C         5.5341306533       14.2284807355       22.2642027517
  C         2.9530324459        8.4647514195       19.3984376496
  C         3.1756059473       10.7533848042       18.5244216981
  C        -0.0300006315       10.2466055065       28.0468605236
  C        -0.3416388846       11.5441185674       28.8067082393
  S        -0.6050874796       14.1912054872       28.8629550497
  H         6.0359849570       15.2066614260       22.1354856061
  H         4.6755318829       14.0926353419       21.6156621341
  C         6.4670636403       13.0354411076       22.0629737693
  N         2.7242145844        7.5216396223       20.3734313069
  C         3.2471248044        7.9563979993       18.1139836454
  C         3.4996089329       10.2718396050       17.2001979336
  H         3.1563832077       11.8079634436       18.6586854980
  C         1.1871579703        9.4896857549       28.4445347387
  C        -1.2568192604        9.3352388748       27.7880071210
  C        -0.7343019068       11.9326479657       30.1142770235
  C        -1.0352861219       13.2739255073       30.2157898310
  H         7.3488160083       13.1246096343       22.6728484173
  H         5.9620668768       12.1373134459       22.5184020047
  C         7.0550464834       12.8318867608       20.6367702311
  S         2.9344649297        6.0494368849       19.6763543076
  N         3.2283003209        6.6004880923       18.1259979162
  C         3.5060285192        8.7823889692       16.9623419503
  H         3.8286602937       10.9245592389       16.3984632134
  H         1.6032514632        9.1460487487       27.5126117327
  H         1.0018283554        8.7046699372       29.1403038988
  C         2.2527588121       10.3471175915       29.1112427705
  H        -0.9880378488        8.5597381214       27.0314231897
  H        -1.4587763893        8.8897292156       28.7627453587
  C        -2.5313786195       10.0233366349       27.4427335583
  H        -0.8982018986       11.1971631860       30.9369320236
  C        -1.4404614144       13.9955305965       31.5037958380
  H         6.3774464080       12.3677762541       19.9503840585
  H         7.8583670409       12.2020836591       20.6764856223
  C         7.4558565055       14.0890137550       19.9458400364
  C         3.7878868640        8.1303910462       15.7651160919
  H         2.7330015632       10.9876179884       28.3725578537
  H         1.8629977923       11.0286073618       29.8546707925
  C         3.4103033051        9.4911664952       29.7265334633
  H        -2.2956454900       10.4605112411       26.5053286822
  H        -2.7960131768       10.7696993122       28.1346064207
  C        -3.6962998299        9.0349278090       27.3497056986
  C        -1.6516027304       15.3735534273       31.6968199513
  C        -1.7068981956       13.1247264454       32.6442672766
  H         6.5691182467       14.7249773400       19.6955084331
  H         8.1864446794       14.4108635176       20.7036671941
  C         7.9862718807       13.8678250853       18.5575294653
  H         3.7012525777        7.1006136052       15.7513388517
  C         4.0122019903        8.5640384455       14.4503596561
  H         3.9345412710        8.9359038037       28.9233180025
  H         3.0095446007        8.7600199927       30.4963185546
  C         4.4822791088       10.3521405690       30.4342348342
  H        -3.5296204350        8.4004201359       26.5145271148
  H        -3.9431671803        8.5003591488       28.2253843337
  C        -4.9970480563        9.8271939872       27.2499507384
  N        -1.4389576581       16.3923929331       30.7596335695
  C        -1.9597731925       15.8924530569       32.9144892600
  C        -1.9826721231       13.6414297373       33.9204106976
  H        -1.6914388361       12.0743211454       32.6168500423
  H         7.2801871913       13.2177057633       18.0231797267
  H         8.2388707616       14.7215049091       18.0080802009
  H         8.8423932467       13.2241485898       18.6039057249
  S         4.4234043416       10.1886175122       13.9774405089
  C         3.9702910716        7.5531197077       13.3642067145
  H         4.4204106966       11.3589824565       29.9887683340
  H         4.1452654325       10.5413033264       31.4336654576
  C         5.8297041689        9.7078706542       30.4473155377
  H        -4.8231941258       10.8451394228       27.5878357186
  H        -5.6849229900        9.4890325163       28.0003657629
  C        -5.6161170739        9.8535763656       25.8507868034
  S        -1.6405335380       17.8413082154       31.5031270382
  N        -2.0261411799       17.3038686696       32.9600490105
  C        -2.0494251209       15.1064312388       34.0892412587
  H        -2.1278161716       12.9767058126       34.7745957619
  C         4.5430732087        9.5090220502       12.3915000938
  N         4.3277634134        8.2000511502       12.2074601906
  O         3.6951550382        6.3878433176       13.5765278170
  H         6.5154284511       10.5464218191       30.8615394712
  H         6.0392544088        9.6033288587       29.3706539060
  C         5.9772632221        8.3460292568       31.1199917189
  H        -4.9438214347       10.3953904299       25.2400652646
  H        -5.5735766553        8.8580929744       25.3942829917
  C        -7.0685441822       10.3798210832       25.7265655092
  C        -2.3669425504       15.7556420049       35.3184137016
  S         4.8335250340       10.4969005726       11.0035158052
  C         4.3056101454        7.3906254009       10.9613265683
  H         6.4465512948        8.2585038194       32.0972722261
  H         4.9805587985        7.8781629966       31.2243414701
  C         6.8541161071        7.3591314195       30.3710273679
  H        -7.0865179037       10.8350671945       24.7485963241
  H        -7.3017477676       11.2068952101       26.4057587027
  C        -8.0801171782        9.2382565659       25.7968922357
  H        -2.0745831213       16.7867636188       35.4493454627
  C        -3.0844651436       15.2799698819       36.4092337470
  H         5.0101157436        7.7836806018       10.2831795930
  H         4.6006822385        6.3769914029       11.2408275845
  C         2.8756207392        7.4531754643       10.2892015892
  H         7.8652131533        7.7766335129       30.1152206492
  H         6.4119518832        7.0353312976       29.4504457444
  C         6.9725109908        6.0102546789       30.9779226510
  H        -8.1027632301        8.6639638214       24.8533504985
  H        -7.6877735965        8.5494454905       26.5397234019
  C        -9.5330605630        9.7571235166       26.1182353047
  S        -3.6378277370       13.5917963237       36.6781234214
  C        -3.3595338141       16.1322936941       37.5480171389
  H         2.9420908347        7.2182869674        9.2550007371
  H         2.2779120110        6.6877228100       10.7756362934
  H         2.4071283786        8.4136992696       10.5906760258
  H         7.3771943646        6.0522334294       31.9585079643
  H         7.5892766567        5.3477159858       30.3063970894
  H         5.9896328449        5.5942072370       31.1532373603
  H        -9.7830138870       10.5228002589       25.4044296112
  H        -9.5760824697       10.2327040954       27.1152890779
  H       -10.3716800926        9.0103908865       26.1241447205
  C        -4.2205964303       14.2078023068       38.2014655726
  N        -4.0617526216       15.5306206427       38.5100935987
  O        -2.9404180843       17.2986403989       37.5838170788
  S        -5.0884430038       13.2565219797       39.4771291535
  C        -4.2867563705       16.2420230689       39.7417493486
  H        -4.2977011444       17.3364239482       39.5321009411
  H        -5.2105961187       15.8425103879       40.1389006037
  C        -3.0976060604       15.9856343273       40.5914924532
  H        -2.3818640420       16.7819751402       40.4317002249
  H        -3.2492512435       15.8620291871       41.6403777810
  H        -2.6501909190       15.0766596755       40.2906387300
