352
i=
  H         2.6994438579        1.1212215607       13.3090836076
  C         3.5632587171        1.4246054454       12.7765307123
  H         4.0129987322        0.5636604913       12.3369880869
  C         3.2136159700        2.4234923641       11.6392412931
  C         4.6156772856        2.0005652684       13.7265935258
  C         4.4066677031        2.7035930947       10.6704546825
  H         2.9425283630        3.3845762938       11.9923510343
  H         2.4645151167        1.9609291565       11.0720356640
  H         5.5027802993        1.4044320933       13.9973457134
  H         4.1812583947        2.1610361631       14.7629668472
  H         5.0250293419        2.9896968122       13.5164829514
  C         4.9572950317        1.4012446777       10.0075121646
  H         3.9488453444        3.3667608644        9.9513436187
  H         5.1428408346        3.4209840700       11.1645771961
  C         5.5363368271        1.6097442304        8.6194665221
  H         4.1713228346        0.5669974417        9.9096900268
  H         5.7360690646        1.1532048007       10.7682739407
  C         6.7997275675        2.4533479374        8.5574440550
  H         4.7926529701        2.0524084312        7.9821678495
  H         5.7184104606        0.6146833428        8.1719405267
  C         8.0186583783        1.6559083211        8.9410943864
  H         6.9622889341        2.9651366303        7.6150893628
  H         6.6061689400        3.2959067709        9.2214336542
  C         9.2733421162        2.5249746797        9.2036139477
  H         8.2908770791        0.9465642459        8.1864581236
  H         7.8792992735        1.1229771601        9.9426239890
  C         8.8750151219        3.9033194731        9.8499897643
  C         9.7724014612        3.2659841812        8.0095123821
  C        10.4009524049        1.7571880670        9.8932863578
  C         9.0985687396        5.0192583980        9.0933100254
  C         8.3758740021        4.2483777590       11.2029919349
  C         9.6383917808        4.6371738616        7.8837124688
  C        10.3127250473        2.7005829867        6.8886102473
  H         9.9943438911        1.3192678332       10.7553797445
  H        10.8396332184        0.9925674646        9.2588268560
  C        11.5040297602        2.7561564088       10.2866290704
  S         8.6446005812        6.4777833333        9.8605676540
  C         8.1194489556        5.5884249974       11.2914711716
  H         8.2209503745        3.4921998453       12.0169196048
  C        10.0059809583        5.3084852963        6.7532981354
  H        10.4418363307        1.5904036602        6.9074505846
  C        10.6416575928        3.3374050870        5.7456738400
  H        11.1992410377        3.6975530839       10.6321193018
  H        12.0498383772        3.0171591034        9.4161054413
  C        12.5943404711        2.3564363203       11.3015914081
  C         7.6488395186        6.2745324775       12.4912684792
  C        10.5419301005        4.6877830287        5.6269416452
  H         9.8595531316        6.3857360885        6.6417183562
  C        11.0647738402        2.9624419430        4.4747085714
  H        13.1922167079        3.1957376240       11.5140494787
  H        13.3218215491        1.5579575942       10.9481345509
  C        12.0389435441        1.8298927390       12.6390182060
  C         7.8118849420        7.6249736332       12.7508842310
  C         7.1286986195        5.3730822788       13.5780875950
  C        10.8393444079        5.4132732728        4.3794882111
  C        11.1800530945        4.0625945645        3.6807209269
  S        11.3191939180        1.4786674501        3.7180052937
  H        11.0907386572        2.3140828894       12.8778229028
  H        12.0033334610        0.7384230439       12.6023943928
  C        12.9715941040        2.2850263555       13.7142643089
  N         8.1217340585        8.6245994505       11.8205530216
  C         7.3762295445        8.2185456631       13.9469530242
  C         6.7767951440        5.9850473531       14.7695061835
  H         6.9314611402        4.3270469896       13.4428648160
  C        12.1094557635        6.3010622834        4.5172063484
  C         9.6585483722        6.1023536053        3.5795003128
  C        11.5204347149        3.7119960957        2.3793888640
  C        11.6005188611        2.3526045599        2.2537928053
  H        12.6939363471        3.2913372442       13.8998372817
  H        14.0503168409        2.1758895784       13.4678009443
  C        12.7015659770        1.6238573393       15.1276927336
  S         8.0582162427       10.0675610698       12.4470295383
  N         7.5961099953        9.5712712631       13.9090814084
  C         6.9504413590        7.4084234312       14.9874662470
  H         6.5161073689        5.2816074565       15.5575602316
  H        11.9380611353        7.0115790062        5.3213093488
  H        12.1602316000        6.9091594080        3.6191189269
  C        13.4236263217        5.5701896860        4.8620009437
  H         9.1716507018        6.7912521451        4.2877210890
  H        10.0511197613        6.6145928068        2.7234852479
  C         8.4955123751        5.1569287752        3.0649471219
  H        11.4844702367        4.4277600932        1.5634618698
  C        11.8517488057        1.5847122525        1.0195018772
  H        11.7205068200        1.8869737483       15.4130284426
  H        12.6762406656        0.5874764349       15.0347586591
  C        13.7285448735        1.9469426228       16.2361686317
  C         6.4856257412        8.1020349166       16.1956411366
  H        13.1548982433        4.7083054518        5.5616521051
  H        13.6857069945        5.0858805747        3.8916824870
  C        14.6235625277        6.2678377388        5.5102443393
  H         8.1827689586        4.4345988233        3.8221132894
  H         8.8436486698        4.5492027749        2.1991596504
  C         7.2995859169        5.8694225456        2.5907418021
  C        11.9329818141        0.1343689700        0.9627859321
  C        12.0124816665        2.2809464259       -0.2974105714
  H        14.4645277398        2.7409821962       15.8414287177
  H        14.2563784630        1.0025786994       16.3120085711
  C        13.0485713816        2.6257598181       17.4121000359
  H         6.4950744518        9.1569996309       16.0459689063
  C         6.3308223428        7.6706373376       17.4892777190
  H        14.2984254659        7.0070493322        6.3084272948
  H        15.0841959432        6.8766233122        4.8167921753
  C        15.6448470300        5.2839303633        6.1165402051
  H         7.0818937832        6.6544607811        3.3559045630
  H         7.6456829663        6.3452200256        1.6353472847
  C         6.1243818226        4.8930334591        2.2953028441
  N        11.7445583629       -0.7841239375        1.9972586308
  C        12.3363434056       -0.4972939223       -0.2256489826
  C        12.2919335503        1.5393422178       -1.4800457264
  H        11.6334906386        3.3253153930       -0.4549693090
  H        13.6422052755        2.6137213228       18.3222356285
  H        12.1648134315        2.1803973193       17.7929931932
  H        12.8069606231        3.6689070899       17.1178206376
  S         6.2665355417        6.0358543991       18.0777064779
  C         6.2733637838        8.7760773588       18.4912544312
  H        15.1487025442        4.9105966588        7.0133139311
  H        15.6378669812        4.4586764475        5.4053504430
  C        16.9816041085        5.9679723880        6.3932745217
  H         5.7099999529        4.4577404402        3.1694423425
  H         6.5085222304        4.0996680611        1.6872092107
  C         4.9596059989        5.4736708485        1.5368111046
  S        11.8766882425       -2.3247469141        1.3933864444
  N        12.4675148452       -1.8490976902       -0.0491255510
  C        12.4477317110        0.0697343839       -1.4854077547
  H        12.1798855910        2.0025862613       -2.4963188849
  C         6.1670372457        6.7731674933       19.6772730122
  N         6.0441884470        8.1526055908       19.7258825498
  O         6.3636647440        9.9788353843       18.2243475971
  H        17.4864631243        6.2577306204        5.4795976051
  H        16.8909971058        6.9525249251        6.8938474502
  C        17.7811318937        4.9436001599        7.2467811989
  H         5.2098231052        5.7886824497        0.5334694241
  H         4.2479333676        4.6820364710        1.3549737988
  C         4.2664671331        6.6003916913        2.2979133438
  C        12.8411460376       -0.7645502037       -2.5216201708
  S         6.1391888683        5.7753941928       21.1251974252
  C         6.0205256332        8.9024145079       21.0202462955
  H        17.1355917122        4.8253363827        8.1476161264
  H        17.6837883480        3.9770076662        6.7481091949
  C        19.1420328184        5.5944037085        7.5189009792
  H         4.4217479823        6.5304006510        3.3583892688
  H         3.1930659291        6.5704111751        2.3919088861
  C         4.6883449575        7.9704078982        1.7263788005
  H        12.5753205550       -1.8068153666       -2.4301446455
  C        13.4047872800       -0.4729728758       -3.7510746011
  H         5.3728698988        8.3450713269       21.6668609464
  H         5.7005132244        9.9499124270       20.8829645999
  C         7.3870896095        8.9961528737       21.6487801568
  H        19.6231239643        5.0548981430        8.2811598446
  H        18.9661631118        6.5930811744        8.0387002012
  C        20.0005577461        5.6407890795        6.2397603446
  H         5.6351346446        8.1806683417        2.1757723112
  H         4.8350655783        8.0078048738        0.6413006009
  C         3.6880924241        8.9879999570        2.1367702379
  S        14.0082873034        1.0148667733       -4.4308377897
  C        13.2772936860       -1.6076373926       -4.7570419307
  H         7.3174917138        8.3942877290       22.5979482945
  H         7.5809802707       10.0527676509       21.9200874799
  H         8.0983642455        8.6230583628       20.8842074314
  H        20.2921475634        4.5789714990        5.9483675833
  H        19.5162009443        6.1133685192        5.3680183930
  H        21.0417963704        6.0596193070        6.3765824894
  H         2.6858652754        8.6328164213        1.7227868619
  H         3.5822093876        9.0463152836        3.2801747163
  H         3.9400788962        9.9443382155        1.7336558892
  C        14.2100001923        0.1601623656       -5.9634814875
  N        13.8713812345       -1.1687280140       -5.8903708354
  O        12.8417792170       -2.7551784438       -4.5156402112
  S        14.9347187992        0.7788448201       -7.3660127425
  C        13.9002733778       -2.0379814300       -7.0480535297
  H        14.0046999914       -3.0290396613       -6.6407664079
  H        14.8479047461       -1.8208888783       -7.6302773571
  C        12.6400784215       -1.8844990763       -7.8321477598
  H        11.7212200146       -2.1467041928       -7.2963039976
  H        12.7449961054       -2.6167015884       -8.6449348005
  H        12.5649025996       -0.8764175959       -8.3318356057
  H        -2.0894789225       13.7793521898       15.2453792974
  C        -2.8164593511       13.4962290710       16.0071790526
  H        -3.3872326894       14.3735033966       16.2517914767
  C        -1.9947600011       13.0638784504       17.2473714769
  C        -3.7212450189       12.5147474668       15.4809662952
  C        -2.7947420281       12.7556387775       18.5381497740
  H        -1.3027907466       12.2308644695       17.0489051440
  H        -1.3324093224       13.9596324128       17.5594176670
  H        -4.4109965583       12.2039534653       16.2330627271
  H        -4.2867371719       13.0474437465       14.6695468948
  H        -3.4162088889       11.6547889156       14.8776824315
  C        -1.8553909094       12.5316461983       19.6637132055
  H        -3.4384826984       11.9461978870       18.4846380277
  H        -3.4052076046       13.5761931828       18.7638184880
  C        -2.4936471789       12.6989285931       21.0479184489
  H        -1.3948075195       11.5279802667       19.5508377395
  H        -1.0908649439       13.2350655533       19.5336136267
  C        -1.4948107168       12.2539500400       22.1420483119
  H        -3.4378828955       12.2188040800       21.1403982254
  H        -2.6171924417       13.8122181356       21.2633202308
  C        -0.2141638428       13.2075315060       22.2779691406
  H        -1.9448520632       12.3376136625       23.1471964981
  H        -1.1840146222       11.2138674640       22.0429758335
  C         0.9971578569       12.5956591096       23.0277506414
  H         0.1691410448       13.4856320981       21.3013933944
  H        -0.5674406640       14.1565076284       22.6572030375
  C         1.4278947788       11.2980837317       22.2807154232
  C         0.6493094539       11.8323084682       24.2772490702
  C         2.1380563163       13.5618711529       23.3170888509
  C         1.2767720342       10.1631793149       23.0564435823
  C         1.7804485936       10.9648803462       20.9554694678
  C         0.8397562225       10.5182438979       24.3265576528
  C         0.3333666237       12.4058457410       25.5126406199
  H         2.3601126168       14.2263184384       22.5022919810
  H         1.8752991681       14.3131898446       24.0200291252
  C         3.4001606081       12.8662346529       23.7891544419
  S         1.8042456135        8.6740669866       22.4142896417
  C         2.0750341242        9.5897046946       20.9273918010
  H         1.8877256405       11.7300174029       20.2336076042
  C         0.7431733578        9.9009134164       25.5300982155
  H         0.0852199583       13.4892289177       25.4138446859
  C         0.2068429143       11.7752445387       26.7224501703
  H         3.8532761409       12.3585860412       22.9623139819
  H         3.1426014801       12.1920378953       24.6125424462
  C         4.2960806387       13.8096083005       24.3586077270
  C         2.4951152632        8.9798959061       19.6249117884
  C         0.3058856317       10.4326884392       26.7805466463
  H         1.0998432316        8.8333825738       25.5457466067
  C        -0.0787643526       12.0826287434       28.0961847261
  H         4.9998331224       13.3680376493       25.1105015963
  H         3.8030108537       14.5312068023       25.0084913815
  C         5.1930024435       14.4961472849       23.3166601941
  C         2.6502900420        7.6183283142       19.3225605934
  C         2.6939855658        9.8933716632       18.5114072066
  C         0.0266991030        9.6471156923       28.0359262381
  C        -0.1946231198       10.9103149451       28.8974447387
  S        -0.1273816423       13.5380658145       29.0369594135
  H         5.4974781065       15.4633535224       23.6922766958
  H         4.5869852797       14.7284692685       22.4389902064
  C         6.3110988037       13.6503265304       22.7910506143
  N         2.4727593957        6.6027031801       20.2610374862
  C         2.8867643494        7.1173621991       18.0434895606
  C         3.1383381075        9.4357042072       17.2872109382
  H         2.7030065200       10.9919059562       18.6433721792
  C         1.2995708525        8.8736248053       28.6116127703
  C        -1.2687983951        8.8068624307       27.8785529395
  C        -0.4679683790       11.2116086712       30.2382308881
  C        -0.5673280762       12.5857840484       30.4595559497
  H         7.1469979347       14.3080152985       23.0151703221
  H         6.4023737985       12.6352590076       23.1647570185
  C         6.2641448426       13.5000314292       21.2621048118
  S         2.6562298440        5.1972520469       19.5386417125
  N         2.8794994975        5.7409660502       18.0603631690
  C         3.0912216436        7.9250705549       16.9344525044
  H         3.3079765092       10.1501486050       16.4682966509
  H         1.6033236585        8.0925021673       27.9306031187
  H         0.9610998157        8.4266505958       29.5352654626
  C         2.5882830779        9.7500202464       28.8841580569
  H        -1.3019468241        8.1969971768       27.0328229173
  H        -1.2580396307        8.0826792274       28.7052375269
  C        -2.6737464757        9.5032702479       27.9493556190
  H        -0.5819757679       10.3769678118       30.9266138179
  C        -1.1157274217       13.2988685132       31.7463067292
  H         6.2911832049       14.5596157783       20.8954096320
  H         5.3033215133       13.0530569384       20.9856915899
  C         7.3915167686       12.8209283953       20.5543382543
  C         3.2624989725        7.2241870820       15.6652875198
  H         3.2411624614        9.2824764153       28.1766123227
  H         2.3251611244       10.7487969126       28.5585539028
  C         3.0807316824        9.8427562703       30.2981254598
  H        -2.7389641806       10.4258141971       27.3035263249
  H        -2.7820576116        9.9205785439       28.9466515696
  C        -3.8909494971        8.5342745736       27.7526411700
  C        -1.2499606079       14.6604627126       31.9558877684
  C        -1.2849145924       12.4659898881       32.9527100825
  H         8.3650176680       13.0053849763       21.0533565538
  H         7.3798996184       11.8099154688       20.6841305126
  C         7.4378763454       12.9985305225       18.9990447475
  H         3.0354059016        6.1605853156       15.6806948809
  C         3.4960614867        7.6547532681       14.3996030354
  H         2.7004638370        8.9664262973       30.8708820560
  H         2.5782709179       10.7289176401       30.6860648145
  C         4.5156686635       10.1207695291       30.4811979499
  H        -3.7052053748        7.7585403721       27.0287346608
  H        -3.9004988119        8.0130477112       28.6690063433
  C        -5.2417206081        9.1855116400       27.4902044689
  N        -1.0502193721       15.6023880817       30.9913001473
  C        -1.5389843202       15.2078543722       33.1866620594
  C        -1.6055332968       12.9709973158       34.2068565251
  H        -1.2438801158       11.3957205060       32.7239095268
  H         8.0783084799       13.8721081360       18.7943584029
  H         7.9591230482       12.1709115549       18.5522406335
  H         6.4724359301       12.9411664216       18.4755391041
  S         3.8550250615        9.2746329245       13.9112401406
  C         3.5460130316        6.6814458729       13.2706795632
  H         4.8446667343       10.9108072631       29.8087984944
  H         4.6231861268       10.4562093376       31.5305009089
  C         5.3771561834        8.9188883430       30.1577581483
  H        -5.3694279081       10.0401792025       28.1153569720
  H        -6.0130297787        8.4678094727       27.6578752833
  C        -5.3417558178        9.7163684344       26.0959779030
  S        -1.1842636314       17.1224914264       31.6279100118
  N        -1.6015998221       16.6097663633       33.1389974725
  C        -1.8365315831       14.4584440803       34.3630479284
  H        -1.7911596834       12.3167261252       35.0436055515
  C         3.9847904625        8.6264365720       12.2412855161
  N         3.8394956460        7.3015349574       12.0932555890
  O         3.5280854445        5.4559721228       13.4719701841
  H         6.3316315626        9.3357987766       29.7643433347
  H         4.9049982061        8.2854569137       29.3353157753
  C         5.6878266224        7.9806195382       31.3811466658
  H        -4.6180626555       10.4887715777       26.0347781857
  H        -5.0277739402        8.9602636279       25.3406079395
  C        -6.6022623441       10.4549503849       25.7549744895
  C        -2.1691789265       15.1888114908       35.4957152017
  S         4.5365042625        9.5966136830       10.9400308166
  C         3.7715218951        6.5723734250       10.8170501796
  H         6.3153592882        8.6225688371       31.9341425623
  H         4.8766384366        7.5865045135       31.9621337660
  C         6.6315160210        6.7633338259       31.1188954365
  H        -6.4507807660       10.8909547466       24.7768467471
  H        -6.7380130841       11.2086308927       26.5071706093
  C        -7.7429113787        9.4837716419       25.8016712400
  H        -1.8006878038       16.2312551819       35.4772051103
  C        -2.7387998226       14.7923082610       36.6523578470
  H         4.1407752173        7.2638286912       10.0655311597
  H         4.3311871966        5.6522037158       10.8947401881
  C         2.2735452468        6.1846750688       10.4937830858
  H         7.6554877206        7.0295443716       30.8892699989
  H         6.2026790788        6.1631063363       30.3107024656
  C         6.7874679449        6.0018114949       32.4770475410
  H        -7.6871262286        8.7473654536       25.0010629196
  H        -7.9238757701        8.8984403027       26.6869971610
  C        -9.0184094490       10.2193777860       25.5986656254
  S        -3.4153292854       13.2513390640       36.8646095670
  C        -2.8053802808       15.7924045255       37.7433821997
  H         1.6811587242        7.0740622465       10.5811545779
  H         2.1936567962        5.7521440518        9.5330237648
  H         1.8594376480        5.5022369720       11.2376385935
  H         5.7919874458        5.7303510263       32.7960802558
  H         7.2205462189        6.5016690985       33.3229131106
  H         7.2749168181        5.0442363535       32.3188024743
  H        -9.2361469073       10.9203175296       26.3675455350
  H        -9.7940111052        9.5035030364       25.3908396101
  H        -8.9746102962       10.7631386869       24.6611507931
  C        -3.8747063675       13.9231473074       38.4307640655
  N        -3.5844434786       15.2291903269       38.6558110112
  O        -2.5828247831       16.9357165540       37.5617243240
  S        -4.8546284493       13.1534797311       39.6527472584
  C        -3.8118099971       15.8957134341       39.9521193420
  H        -3.7443809635       16.9229141321       39.7699386652
  H        -4.8935857107       15.8089485717       40.2847423595
  C        -2.8392545116       15.4608953158       41.0177090398
  H        -1.9776509692       15.0288442364       40.4711259832
  H        -2.5255592859       16.3275690129       41.6484566584
  H        -3.3874961935       14.7239752246       41.5720766971
