352
i=
  H         2.8369704496        2.0309299765       11.8256738713
  C         3.5197346105        2.8814264203       12.0610114779
  H         4.4926754415        2.3389438255       11.8830168056
  C         3.3406572242        3.8713799988       10.8416014565
  C         3.3562158609        3.6086030252       13.4114619799
  C         4.6570765342        3.7970619970        9.9236139797
  H         3.1709512413        4.8449245588       11.2460117924
  H         2.4421197179        3.5393120411       10.3333860663
  H         4.2084760379        4.2277179574       13.6517267223
  H         3.2409299764        2.9502712464       14.2298192627
  H         2.4193945272        4.1747355051       13.3612180090
  C         4.9626416885        2.4235882323        9.3569441124
  H         4.6660586623        4.5570618091        9.0719672414
  H         5.4908448703        3.9647230170       10.5640471133
  C         5.8319158647        2.5320680130        8.0824702695
  H         4.0170713135        2.0384519819        8.9779963528
  H         5.3875439278        1.6785980483       10.0155218204
  C         7.2111651642        3.1758165282        8.1164003544
  H         5.3329467905        2.9060722952        7.2445273276
  H         5.7937585846        1.5042793982        7.7671043042
  C         8.3670027182        2.4852501114        8.7943433222
  H         7.4944551165        3.4803273288        7.1160792496
  H         7.0305496363        4.1240916922        8.6283350673
  C         9.5923865750        3.3528319627        8.9642742902
  H         8.6285919795        1.5784615544        8.2185262678
  H         7.8533841037        2.2643902050        9.7795854330
  C         9.2495804632        4.6834151549        9.6095377272
  C         9.9623320913        4.0140931572        7.6703087002
  C        10.8131839001        2.6276564690        9.7358523191
  C         9.3994041335        5.7664367096        8.7917724965
  C         8.7430586651        5.0376475721       10.8795375843
  C         9.9176862972        5.3676258803        7.5846225906
  C        10.3235664154        3.3601929836        6.4887936667
  H        10.3418814332        2.1159156654       10.6170972102
  H        11.4011138850        1.8980933940        9.1642510895
  C        11.8545604924        3.5968284761       10.3839962825
  S         9.0383839078        7.2573966421        9.5255793416
  C         8.6751305915        6.4126262531       10.9735075567
  H         8.4956870387        4.2507090208       11.5653456166
  C        10.2269644394        5.9273823650        6.4057025545
  H        10.3927101797        2.2873818467        6.5183865080
  C        10.7089305073        3.9977329486        5.3449659515
  H        11.3926231040        4.2475875552       11.2018246499
  H        12.5046189934        4.1480786496        9.7346209096
  C        12.9066061269        2.6905777355       11.1437057441
  C         8.1440892533        7.0359845616       12.2485306803
  C        10.6590570686        5.3219492208        5.2004872358
  H        10.1269406163        7.0002119131        6.3272695618
  C        11.1269829664        3.6093262693        4.0937632581
  H        13.7367401166        2.5509752750       10.5022742739
  H        12.4850707220        1.7442620685       11.3754043063
  C        13.3489763007        3.3039447581       12.4451106906
  C         8.1222720377        8.3798467013       12.5075656185
  C         7.5800700839        6.1461448498       13.3365577180
  C        11.2345462964        6.0001115195        3.9792440205
  C        11.4367817443        4.6789292259        3.2707767099
  S        11.3538079675        2.0727137928        3.4098452375
  H        14.1376874654        4.0420857533       12.2903107174
  H        12.5362148154        3.9518543010       12.8942702300
  C        13.9217739994        2.2770362498       13.5493344453
  N         8.5631729507        9.2957387461       11.6506901500
  C         7.7241853714        8.9189106746       13.7025821040
  C         7.1961720847        6.6388082868       14.5562536686
  H         7.4753959190        5.0605984958       13.2815520437
  C        12.5814666805        6.6750814163        4.2793103777
  C        10.2701453812        6.8458099001        3.1651093420
  C        11.8597432412        4.2367822499        2.0421521326
  C        11.8689407740        2.8618767806        1.9695882516
  H        14.6549605022        2.7834783194       14.1449886958
  H        14.4899389374        1.5160988414       13.0043583076
  C        12.7715071792        1.6797189267       14.4712881877
  S         8.5363285235       10.7551073614       12.3915313902
  N         7.8902745684       10.2891102582       13.7786154076
  C         7.3105518581        8.1110429371       14.8323886145
  H         6.9223146506        5.8475003629       15.2794118540
  H        12.4497491688        7.1900039574        5.1691497745
  H        12.9011388715        7.4418455641        3.6395133549
  C        13.7911012535        5.8274028745        4.5766364177
  H        10.0537105868        7.6160385811        3.9029796148
  H        10.8126135845        7.3200497928        2.3338137866
  C         8.9392317425        6.2077949354        2.6120458349
  H        12.0558987599        5.0434472116        1.2860969595
  C        12.1304324957        2.1058676635        0.7697748989
  H        11.7933727564        1.5175504631       13.9213206148
  H        13.0322967106        0.6695477575       14.8103484280
  C        12.4172309181        2.5826482094       15.7155266428
  C         7.0248463064        8.7834139117       16.0713158403
  H        13.4662295765        5.2083303844        5.3956595858
  H        14.0494767032        5.2144181710        3.7028248094
  C        15.0244919706        6.6535465948        5.0543353286
  H         8.3606874358        5.5719812623        3.3081088149
  H         9.1644284078        5.6463295298        1.7122320790
  C         8.0370852566        7.3767014695        2.2129370934
  C        12.1387478542        0.7183395537        0.5805564343
  C        12.1908830542        2.8516804140       -0.5674489223
  H        11.4871261462        2.2316590515       16.1067259076
  H        12.1606266219        3.6127588402       15.3349155975
  C        13.4702422826        2.7425764341       16.8250791604
  H         7.1642861337        9.8301414792       16.0967442047
  C         6.6178870801        8.3310901079       17.3336374664
  H        14.7540143168        7.6161518701        5.4753056405
  H        15.7233190165        6.9037107834        4.1438313603
  C        16.0283523461        5.8566950509        5.9681627144
  H         7.8852197117        8.1075083882        3.0211472517
  H         8.5969175182        7.9740437375        1.4032351858
  C         6.7604330662        6.8146869741        1.6545817753
  N        11.8811298031       -0.1937329513        1.5738609662
  C        12.3276705842        0.1223559014       -0.6192745376
  C        12.5564631568        2.2437351046       -1.7589629235
  H        12.1864407469        3.9762148432       -0.6373378832
  H        14.4661404991        2.8350360353       16.4994899369
  H        13.3983527490        1.8183007777       17.5005495230
  H        13.5045196160        3.7359529885       17.3574671853
  S         6.1859600997        6.7548786558       17.8327382444
  C         6.6660108257        9.2983080117       18.4709900633
  H        15.5735604567        5.3975444451        6.8515389712
  H        16.3713928408        5.0045089795        5.3597680303
  C        17.2115391550        6.7468924983        6.3821270286
  H         6.1057718445        6.3482525669        2.3605016037
  H         6.9483648196        6.0502050234        0.9244712661
  C         5.8808947148        7.9275161277        1.0739403208
  S        12.0237024500       -1.6516877658        1.0150021702
  N        12.2782598322       -1.3235928929       -0.5728276807
  C        12.5889906060        0.7659909535       -1.8618197916
  H        12.7314904456        2.8376265243       -2.6232333573
  C         5.9642888648        7.4076117940       19.4462493341
  N         6.2291516590        8.7006389881       19.5900287854
  O         6.9832049488       10.4834133802       18.3627051563
  H        17.7287277003        7.1493200648        5.5243733591
  H        16.8227757323        7.5401772513        6.9950975992
  C        18.2384573413        5.8640670249        7.1140611180
  H         6.5647016143        8.5054958191        0.4539772355
  H         5.1289594980        7.4567992875        0.4125819287
  C         5.2369492583        8.8245041061        2.2127902114
  C        12.7928439109        0.0534080778       -3.0589256688
  S         5.5206594389        6.4613191959       20.8531850655
  C         6.2216995441        9.4373747579       20.8094319987
  H        18.1442562995        5.9629349363        8.2272698971
  H        18.0139341600        4.7974093148        6.8968806350
  C        19.7347427496        6.1476094789        6.6765572777
  H         6.0727673975        9.4124202427        2.5241875774
  H         4.8803376122        8.1716779526        2.9936407204
  C         4.1028607199        9.7263752062        1.8209496173
  H        12.4355803420       -0.9353780216       -3.0066042878
  C        13.4443000331        0.3545653039       -4.2175668405
  H         5.5728143371        8.9704451236       21.5374068482
  H         5.8588012225       10.4121497389       20.6368946997
  C         7.6116110783        9.4043822889       21.4392737441
  H        20.5247444409        5.5685899159        7.2421126456
  H        20.0643504920        7.2119475164        6.8226723178
  C        20.0421242087        5.9287517727        5.2469046800
  H         3.1244759126        9.3613654181        1.9245512183
  H         4.1557635803       10.5675068290        2.4459499562
  C         4.2747576122       10.2462776358        0.4226162864
  S        14.2090599569        1.8900077317       -4.6913582540
  C        13.6625682935       -0.7316458074       -5.1844659467
  H         8.3746594441        9.4223568587       20.7077183283
  H         7.6510006383        8.4673550499       21.9575235237
  H         7.8164205027       10.1999599087       22.1583540357
  H        21.1282723496        6.0705387234        5.0753101094
  H        19.5593898422        5.0416587527        4.8174475292
  H        19.5583757310        6.7620040738        4.6423854544
  H         5.2616029781       10.6846224810        0.2799006677
  H         4.1702254924        9.4462012404       -0.3077061801
  H         3.4931366390       10.9527913472        0.2744807052
  C        14.6172289381        0.9727090909       -6.2127712822
  N        14.3112138433       -0.3377630309       -6.1963672971
  O        13.2613318667       -1.8619354905       -4.9969378525
  S        15.0136029170        1.8405386045       -7.7130348828
  C        14.4484453923       -1.1565669271       -7.4214087479
  H        14.5519452658       -2.2003936183       -7.0631098419
  H        15.3627397840       -1.0399163904       -7.9843194546
  C        13.3073456409       -1.0122832730       -8.3569600270
  H        13.4060931805       -1.6303561271       -9.2095620721
  H        13.3136520534       -0.0238532918       -8.9021043074
  H        12.3089623963       -1.2452994880       -8.0252200207
  H        -3.4464524586       15.3029405919       15.8771892948
  C        -3.3573508318       14.2509095318       15.9417688255
  H        -4.3802742345       13.8031797869       16.0947708563
  C        -2.3487722799       13.7783671354       16.9767469469
  C        -2.9577074797       13.8083369428       14.5660788697
  C        -2.8165007686       13.9840608440       18.4106456226
  H        -2.0886636020       12.7355324999       16.7167989843
  H        -1.3234237083       14.2919466603       16.7728028055
  H        -2.0697530967       14.2663314361       14.3434631874
  H        -2.9563504882       12.7560657152       14.5285541687
  H        -3.6339212030       14.1144991279       13.7869473405
  C        -1.7618437006       13.7600790805       19.4624499366
  H        -3.5937485804       13.2128723298       18.5379072473
  H        -3.2370898809       15.0181797851       18.5233459454
  C        -2.3472594098       13.4906855334       20.9140943281
  H        -1.1911018769       12.9078895926       19.1900448114
  H        -1.0583693272       14.5827376551       19.4498598151
  C        -1.1430728912       13.0096154083       21.8159695389
  H        -3.0504515326       12.6789880095       20.8426718637
  H        -2.8427288406       14.3113600502       21.4037552850
  C        -0.1136267598       14.0347362869       22.2306236485
  H        -1.5820891185       12.6020521506       22.7799090247
  H        -0.6834034930       12.1473532078       21.3396313902
  C         1.1892602116       13.4967951508       22.8866153417
  H         0.1060980957       14.7204673760       21.3536490132
  H        -0.4796351439       14.7967383571       22.9659326758
  C         1.6667610147       12.2362963081       22.1300435272
  C         0.9358706046       12.7396943076       24.0420545902
  C         2.3440263452       14.5612996199       23.0401456619
  C         1.5307841670       11.0698898460       22.8628964548
  C         2.3207098445       11.9487707613       20.9308767930
  C         1.0588189429       11.3817823341       24.1229587676
  C         0.4187392977       13.1988550737       25.2457892079
  H         2.6238335966       15.0555515581       22.2059689580
  H         2.0231597474       15.3706836696       23.7253412022
  C         3.7515408350       13.9481870343       23.5418323605
  S         1.7677809470        9.6075993415       21.9585684686
  C         2.3181283229       10.6128220168       20.6264371528
  H         2.8607330572       12.6879683874       20.3884814444
  C         0.6881680474       10.6613696488       25.2118148187
  H         0.3896339808       14.2407235186       25.3546943315
  C         0.0577847065       12.5017586327       26.3433206184
  H         4.1442310292       13.1982935426       22.8149487161
  H         3.6517102798       13.4459045725       24.5105073856
  C         4.9135132774       14.8290201723       23.9558144237
  C         2.8091278448       10.0292527923       19.3346806988
  C         0.1695207850       11.1563947475       26.4150048355
  H         0.8999648897        9.5792314381       25.1836031225
  C        -0.3512457020       12.8919185101       27.6196906590
  H         5.6803311937       14.3162562723       24.4770216718
  H         4.6288581387       15.7207630371       24.5633459401
  C         5.6688516109       15.3225359394       22.6603136974
  C         2.6483061321        8.7160095175       18.9219090850
  C         3.4085401845       10.9804380389       18.3399028715
  C        -0.2982878036       10.4045255721       27.6273999113
  C        -0.4584119283       11.7219386534       28.3873004756
  S        -0.5373594255       14.3501262241       28.3512328604
  H         6.4096453669       16.0477226018       22.9540352867
  H         4.9686568640       15.6957798070       21.9372533043
  C         6.3502077341       14.1765126033       21.9138782812
  N         2.1919869496        7.6237106947       19.7033269678
  C         2.9717765059        8.3163394774       17.6300374153
  C         3.6029900421       10.5864100497       17.0187070284
  H         3.6438059070       11.9829107777       18.6932258199
  C         0.7796527675        9.5470589792       28.2170470147
  C        -1.6386805005        9.6125867707       27.4481085424
  C        -0.9027772461       12.0537727804       29.6746614884
  C        -0.9104216715       13.4493240626       29.8646430275
  H         7.4459112460       14.3381149725       21.9649214878
  H         6.1457385816       13.2300146301       22.3060487243
  C         5.8457796142       13.9081426772       20.5326787593
  S         2.2604725577        6.3326049852       18.7720498152
  N         2.8792035364        6.9594543179       17.4210934578
  C         3.3935094307        9.2040020945       16.6186659027
  H         4.1484267064       11.2340448109       16.2981339063
  H         1.0782703431        8.8693312903       27.4188822425
  H         0.3016258470        8.8696957294       28.9718946278
  C         1.9902343355       10.3650489510       28.7382106566
  H        -1.4686392224        8.8288231676       26.7949580920
  H        -1.8593710174        9.0855770180       28.4423013345
  C        -2.8348837566       10.5398764236       27.1369794131
  H        -1.1289529794       11.2815537393       30.4501060300
  C        -1.1410772301       14.2208228038       31.1440341628
  H         4.8510154740       14.3292213997       20.4122005975
  H         5.6311004667       12.8185284614       20.4984921255
  C         6.7882074291       14.1738686774       19.3630070641
  C         3.6061734283        8.7231853819       15.2955471434
  H         2.4987176261       10.6462008302       27.7669877989
  H         1.7611678700       11.3596802471       29.1134023081
  C         2.9979653510        9.5856750924       29.5006888953
  H        -2.5120123003       11.0131516303       26.2023920707
  H        -3.1703416552       11.1868481138       27.9047192284
  C        -4.1048010467        9.7403508671       26.7692352497
  C        -1.1983452494       15.6629676004       31.2808099701
  C        -1.4671517850       13.4245701901       32.3667425296
  H         7.2109432704       15.2041130300       19.4101467306
  H         7.7301786170       13.5548582281       19.5152314449
  C         6.1669910188       13.9508158405       17.9940514702
  H         3.3220295647        7.6762509363       15.2360170564
  C         4.1149007160        9.2073265302       14.1091614875
  H         3.3859312756        8.7599875278       28.9135088051
  H         2.4685077422        9.2120740417       30.3244185619
  C         4.2088403898       10.4576848080       29.9246107886
  H        -3.7976775166        8.8397300315       26.2728042071
  H        -4.6670202149        9.5321512610       27.6812033529
  C        -5.0191446492       10.6884028557       25.9415408580
  N        -0.9637492651       16.5163625072       30.2348267418
  C        -1.4779186153       16.2953450803       32.4272503401
  C        -1.7183662026       14.0900866112       33.5553010375
  H        -1.5182360622       12.3522510451       32.4282648040
  H         5.1226622741       13.7262509355       18.2092889209
  H         6.2160108134       14.8855508144       17.4628696124
  H         6.5603537746       13.0996503951       17.4756925309
  S         4.4825166031       10.7957625162       13.6769600906
  C         4.3326674457        8.1280043245       13.0823974435
  H         4.2117048847       11.3665932202       29.3719154171
  H         4.1519905481       10.7311024881       30.9386830358
  C         5.5638216284        9.8524311555       29.7808675145
  H        -4.5859993252       10.9449670382       24.9809458915
  H        -5.2219485270       11.5536799334       26.5480749654
  C        -6.4365998815       10.1104067639       25.6924448763
  S        -1.4155482663       18.0290108990       30.6694309992
  N        -1.5583755335       17.6688176552       32.3065919837
  C        -1.8143424464       15.5867797539       33.6071789057
  H        -2.0186702636       13.4400483799       34.3783408935
  C         4.9062619345       10.0554089433       12.1394418571
  N         4.9014315773        8.7332755395       12.0628651252
  O         4.2961942080        6.9215866229       13.3020832767
  H         6.3361939174       10.5410857375       29.9969269769
  H         5.6416203258        9.5970304795       28.7495860349
  C         5.8119324466        8.6443259348       30.6309793067
  H        -6.5464916282        9.3425725482       24.9653157130
  H        -6.6612248124        9.8344993705       26.6973216062
  C        -7.4180910086       11.2057288657       25.3313643171
  C        -2.1610988041       16.3147826567       34.7628828935
  S         5.3851060992       10.9460789713       10.7625455863
  C         5.0001992044        7.9434168455       10.8023073513
  H         6.7040314030        8.8967534234       31.2154626711
  H         4.9899199919        8.3978656694       31.3664928262
  C         6.0535486074        7.3933229167       29.8512506955
  H        -7.2263858540       11.7775890932       24.4505046047
  H        -7.3443493319       12.0109205663       26.0733729402
  C        -8.8306692194       10.5997832045       25.2656486067
  H        -2.0256629980       17.3660644963       34.6604333907
  C        -2.7172558241       15.9849255964       35.9883712440
  H         5.7432846999        8.2939811234       10.0680470682
  H         5.3305714677        6.9063886006       11.0101248586
  C         3.6782560972        7.8606443825       10.0570530598
  H         6.3498546188        7.6008889250       28.8427129426
  H         5.1929444002        6.7498936413       29.8499044328
  C         7.1691494968        6.5555526541       30.5576091027
  H        -9.4082490681       10.9871293676       24.4330367962
  H        -8.6890740395        9.5350370930       25.1588290706
  C        -9.6311873461       10.7722199867       26.5251746943
  S        -3.0057004142       14.3700429460       36.5890692328
  C        -2.8906648406       17.0914747018       37.0050885730
  H         2.8788983943        7.7354793510       10.7825237394
  H         3.5289672640        8.8046605133        9.4789782710
  H         3.4804048651        7.0928528077        9.3675036948
  H         6.8176320444        6.6385403032       31.5892512451
  H         8.2290049466        6.8918675958       30.4451947754
  H         7.1630684293        5.5823695356       30.1433349570
  H        -9.0549913039       11.0469499928       27.3855929559
  H       -10.3297498730        9.9781587582       26.8186307204
  H       -10.2980208895       11.6269444903       26.2863142337
  C        -3.5700331593       15.1891195478       38.0939004183
  N        -3.4969606614       16.5085164701       38.1256307864
  O        -2.6758668006       18.2545019001       36.7586782931
  S        -4.1240682750       14.3945908441       39.5558515774
  C        -3.9220750935       17.3663905169       39.2115178300
  H        -4.2639863332       18.2973918956       38.7852718800
  H        -4.8045005437       17.0361479414       39.7755319206
  C        -2.7125500088       17.8032641283       40.0338743844
  H        -1.8995332540       17.1916147223       39.7333160807
  H        -2.4313122848       18.8172347582       39.8944063875
  H        -2.9885968860       17.6142166426       41.0328986275
