352
i=
  H         5.2274424258        2.4572860888       12.9314784254
  C         4.1842329811        2.7287182370       12.9202632996
  H         4.3105335574        3.7983995125       13.1664300105
  C         3.3180344044        2.5435202425       11.6680876197
  C         3.5970170832        2.1738347929       14.0916530946
  C         4.0397581325        2.8406684496       10.3894038364
  H         2.3880062434        3.1178721239       11.6999902125
  H         3.0775355135        1.4875551423       11.5207439546
  H         2.9210654773        1.2878268809       13.8856935196
  H         3.0700302167        2.9385342687       14.5736892954
  H         4.3471036939        1.8076444579       14.7600835908
  C         4.7145380724        1.6276988045        9.7645071356
  H         3.3542763284        3.3101385796        9.6751151021
  H         4.8189344189        3.5138804479       10.7562859624
  C         5.4529846497        2.0142765158        8.4328484961
  H         3.8945512863        0.9843749145        9.4855797950
  H         5.2529387522        1.0436112221       10.5202425630
  C         6.7540805495        2.7415650187        8.5854121089
  H         4.8131154637        2.8053824187        7.9558927847
  H         5.5373917940        1.2018350906        7.7027551045
  C         7.9251784946        1.8785295006        9.1716545002
  H         7.1120368253        3.1217491264        7.5907427156
  H         6.5324242471        3.5219740525        9.2945693752
  C         9.3065070022        2.6740899053        9.4071003328
  H         8.0363549157        1.1427197550        8.4273784746
  H         7.6616997898        1.3824320373       10.0756147860
  C         9.0364292709        4.0116587538       10.0896112284
  C         9.6896635086        3.4598588971        8.1772524972
  C        10.4418438951        1.9051461960       10.1544664801
  C         9.1723807413        5.1764261472        9.3068981549
  C         8.5524561843        4.3492229719       11.3460553313
  C         9.6936129129        4.7960109943        8.0609829871
  C        10.1856668243        2.8203070886        7.0179853462
  H         9.9562440774        1.3939815597       10.9815822287
  H        10.7367696941        1.0909213179        9.4805979544
  C        11.6399860408        2.7603020670       10.5247226978
  S         8.5204207162        6.6478138447       10.0559340984
  C         8.1900507874        5.6662441819       11.4719601089
  H         8.5172320195        3.5350388897       12.0472195636
  C        10.0307929858        5.4048393021        6.9312601003
  H        10.2061146895        1.7080919732        7.0467135455
  C        10.5169890438        3.4182903503        5.8634468790
  H        11.3745980187        3.6626779328       11.0640722203
  H        12.1386165025        2.9956235055        9.6190127210
  C        12.6653516379        1.9957851998       11.3956673688
  C         7.6640409902        6.3681752686       12.7123547151
  C        10.4045655987        4.7524549704        5.7840187817
  H         9.9659184687        6.4867804633        7.0038856677
  C        10.9518148572        3.0168139047        4.5897004566
  H        13.5333295499        2.6445364249       11.4048697160
  H        12.9000881248        1.0064916299       10.9913245613
  C        12.1188283656        1.9305836435       12.8541991131
  C         7.5944729686        7.7782391573       12.9726021699
  C         7.5009977244        5.5336283403       13.9703484322
  C        10.8054191458        5.4394164280        4.5221262872
  C        11.0870178347        4.0809686999        3.7617967332
  S        11.1552529045        1.5005492981        3.8607211953
  H        11.5180994189        2.7523686030       13.2301251404
  H        11.5027309260        0.9691996714       13.0205221280
  C        13.3951086438        1.9051666502       13.7569694224
  N         7.7470646171        8.7992818288       12.0108038060
  C         7.4166701541        8.2640186582       14.2891478550
  C         7.3029403491        6.0577851583       15.2092684355
  H         7.4985775355        4.4899325997       13.9014240072
  C        12.1067160975        6.2184292511        4.4704045131
  C         9.6412324391        6.3098801099        3.9024812999
  C        11.2880571440        3.6572535594        2.3909694598
  C        11.4669766426        2.3030926936        2.3801718292
  H        13.8040033186        2.8712187202       13.8486559102
  H        14.1752838179        1.4027202257       13.1842106200
  C        13.2756177771        1.1264297267       15.0461517671
  S         7.8284873168       10.2347552541       12.8037711311
  N         7.4968205652        9.6624373307       14.3273693481
  C         7.1966100422        7.4832846790       15.4053500867
  H         7.3643813219        5.4290741626       16.0730254630
  H        11.8400057872        7.1261444243        5.0101638129
  H        12.3836381777        6.5406770805        3.4726518720
  C        13.2937786033        5.4379378322        5.0758294322
  H         9.3996074778        7.1529091595        4.5409801058
  H        10.1142627886        6.7242641396        3.0566756809
  C         8.3924019896        5.4964168977        3.4787024364
  H        11.4099261989        4.3872223899        1.6054464130
  C        11.6878861439        1.5292667807        1.1243068917
  H        12.2971980297        0.6583835040       15.0852981344
  H        14.0223907843        0.3582172213       15.1561438313
  C        13.5402083256        2.0805793038       16.2538579402
  C         6.9251524568        8.1417631805       16.6366484672
  H        13.2372215131        4.9202713274        6.0473335285
  H        13.5161976209        4.6139916929        4.3285156589
  C        14.4282273014        6.4225940968        5.3365047508
  H         8.0368752754        4.8927235786        4.3056937390
  H         8.6899805936        4.7079987992        2.7114558850
  C         7.2726160588        6.3319226974        2.9644035939
  C        11.7075855865        0.1325681728        0.8629311899
  C        12.0159192023        2.2767774533       -0.1174354395
  H        13.6258092155        3.0946627472       15.8773753143
  H        14.5708555479        1.8976120911       16.5747495266
  C        12.5654894366        1.9219328940       17.4426964547
  H         7.2476616406        9.2179000814       16.7385147555
  C         6.6095001790        7.7243092536       17.8769673097
  H        14.1470145888        6.9562441201        6.2630368970
  H        14.5784470578        7.1232193255        4.4902919591
  C        15.7682437627        5.8256467869        5.6484541013
  H         6.9807240636        6.8916375485        3.8310034358
  H         7.6223117821        6.9531921588        2.2058252776
  C         6.0485187135        5.5390569263        2.4830717917
  N        11.3526865060       -0.7980733240        1.8525839943
  C        12.0012375459       -0.5035383851       -0.3078975971
  C        12.2593512533        1.6955579915       -1.3496884150
  H        12.0797479669        3.3446587615       -0.1435867035
  H        11.5997831648        2.3612526131       17.1594343061
  H        12.9125828888        2.4813805557       18.2651666366
  H        12.3970944460        0.8417745668       17.6450939062
  S         6.1530831813        6.0281831883       18.2549131132
  C         6.4828696212        8.6677290596       19.0400539056
  H        16.0187602103        4.9590778436        4.9827605037
  H        16.5472554271        6.5985527403        5.3419478204
  C        16.0920821667        5.5055600658        7.1345119791
  H         5.7024732392        5.2645228483        3.4560755102
  H         6.2547653477        4.5912699062        1.9764975657
  C         5.0445559599        6.4172760123        1.7520982420
  S        11.4450579003       -2.3203632505        1.2605986333
  N        11.8537663102       -1.8860718908       -0.1962523314
  C        12.2936786828        0.1980029762       -1.4891466435
  H        12.3241090857        2.3060211216       -2.2771781926
  C         5.8892493471        6.6498028237       19.9106458071
  N         6.0574463055        7.9953965638       20.1059407154
  O         6.5489709192        9.9019797374       18.9031924637
  H        16.0577044732        6.4937222953        7.7627618287
  H        15.2412718457        4.9712593233        7.6138623539
  C        17.4798432172        4.7953447565        7.2956274280
  H         5.5051713412        6.8563581325        0.8872397043
  H         4.2164704070        5.8880486752        1.3022650457
  C         4.6620141874        7.6711072405        2.5198047753
  C        12.6344170904       -0.4946375931       -2.6759499142
  S         5.3136301916        5.7170368609       21.2762625286
  C         5.8389940701        8.6525230967       21.3845871740
  H        17.5289493135        4.1614270556        8.1592227877
  H        17.6878834719        4.1753566484        6.4555900563
  C        18.6726298245        5.6984094184        7.3143017526
  H         5.5073212226        8.2454929362        2.7452104410
  H         4.3058050374        7.4836145334        3.4943293851
  C         3.6422669272        8.6003498367        1.8905329718
  H        12.4577367722       -1.5082363670       -2.6959860107
  C        12.9934462086       -0.0212060441       -3.8897041769
  H         5.3690305507        8.0614924013       22.1415018517
  H         5.3603510775        9.6634737635       21.2927958937
  C         7.2758496573        8.9038122090       21.9259344649
  H        19.1711470191        5.4970354325        8.2395739366
  H        18.3025904652        6.7007422390        7.3135569013
  C        19.6699229566        5.4892493543        6.1853290207
  H         3.2164729063        8.1614265242        1.0177267026
  H         2.7920160894        8.5949855095        2.6238128775
  C         4.0989761353       10.0611802710        1.5871251426
  S        13.6430145367        1.5686276873       -4.2972684578
  C        13.0886049072       -0.9759550372       -5.0294215102
  H         7.6409325903        9.8252193875       21.4946332302
  H         8.0266710184        8.1424112989       21.5893492493
  H         7.3433697315        9.0312977502       22.9691497425
  H        20.7004000453        5.9037445329        6.4697529227
  H        19.6950641686        4.3997627420        5.9932559788
  H        19.3498994267        6.0009453965        5.1943870568
  H         4.6572996647       10.1797287759        0.6979978313
  H         3.1687426111       10.6101181593        1.5230626560
  H         4.6176565279       10.4503588032        2.4102223049
  C        14.0269133261        0.9404716986       -5.8939339191
  N        13.7860970154       -0.3910637603       -6.0152054546
  O        12.6201319793       -2.1142958936       -4.9361442953
  S        14.9349140341        1.7465456864       -7.1404247896
  C        14.1118738604       -1.1659111226       -7.2327893749
  H        14.2588744128       -2.2023548484       -6.8938959103
  H        15.0455729674       -0.8938424881       -7.7168605168
  C        12.8538164404       -0.9835842356       -8.1640973930
  H        12.0477595105       -0.4019250949       -7.8092654528
  H        12.5807989113       -1.9878711641       -8.5116820323
  H        13.1536817152       -0.4963553613       -9.0550368574
  H        -2.8177041651       15.1423234253       16.3468008691
  C        -2.6999375836       14.1153884049       16.7217904850
  H        -3.5360125231       13.7911116488       17.3443861963
  C        -1.4643854453       14.0771146709       17.6023647940
  C        -2.6197508607       13.0920360534       15.5525089895
  C        -1.6340015478       14.3630535589       19.0778505480
  H        -0.9562848196       13.1899499097       17.6514523287
  H        -0.7640802309       14.7786720118       17.2293007438
  H        -3.5804362726       12.5436008122       15.5817979490
  H        -2.5654816142       13.6442837331       14.6506772465
  H        -1.7542283332       12.4651692365       15.6274864144
  C        -1.8945964135       13.0896501673       19.8869435311
  H        -2.5030804781       15.0641067464       19.0927939980
  H        -0.7557742344       14.9172441024       19.5833345444
  C        -2.2498701237       13.5300808234       21.2942890287
  H        -2.8667516001       12.6432904236       19.5875480000
  H        -1.0866239239       12.4414226261       19.8107325785
  C        -1.3061839147       12.9540592214       22.3569980036
  H        -3.2540165247       13.0982519421       21.3987426182
  H        -2.2729553816       14.6089920038       21.4133280847
  C        -0.1201216106       13.8903214430       22.7585604336
  H        -1.8663946380       12.6202601462       23.2694083924
  H        -0.9365067136       12.0056105782       21.9800122624
  C         1.0312864963       13.1323859582       23.4973647360
  H         0.1772085089       14.5237156819       21.9349974041
  H        -0.4799911001       14.6150055835       23.5480197012
  C         1.3466326331       11.8420790290       22.7771003065
  C         0.6356840509       12.3711032005       24.6910417477
  C         2.2738510404       14.0021227876       23.5845487079
  C         1.2419447626       10.6591527184       23.6182474279
  C         1.8170776574       11.4245704445       21.5001094303
  C         0.6869610482       11.0302710083       24.8098515420
  C         0.1088749136       12.9907182092       25.8186005729
  H         2.3714695695       14.4601185448       22.6330200219
  H         2.1166125626       14.6973761483       24.3600390518
  C         3.5528342463       13.2257618856       24.0515555748
  S         1.6109594336        9.1544786068       22.8585215007
  C         1.9946673563       10.0767526306       21.3898254615
  H         2.0215402681       12.1931648969       20.7336147067
  C         0.2788826088       10.3875299013       25.9360271032
  H        -0.1132571495       14.0634174798       25.7773441195
  C        -0.1352033188       12.3500879666       27.0195893555
  H         3.7115748444       12.3675749344       23.3931891962
  H         3.4457738539       12.8017662183       25.0345475461
  C         4.7581945652       14.1240916296       23.9924864121
  C         2.5741348145        9.3550306036       20.1902424834
  C        -0.1316730482       10.9891356811       27.0889303240
  H         0.2905251509        9.3093542013       25.9467289283
  C        -0.5696134642       12.7375623206       28.2766232924
  H         5.4785237976       13.6978564519       24.7452346933
  H         4.5981442955       15.1919693231       24.3307278069
  C         5.3811951818       14.1462217358       22.5611359668
  C         2.4401348214        7.9546628599       19.9449821078
  C         3.1468534416       10.1998363687       19.0876446822
  C        -0.4719166518       10.3004281403       28.4065414946
  C        -0.6904223704       11.6823941526       29.1587206524
  S        -0.9784907080       14.2774338893       28.9765347663
  H         6.1141838667       14.9683959422       22.4972799885
  H         4.5420467497       14.4523641324       21.9329801252
  C         6.0885858152       12.8448427763       22.2095833279
  N         2.1393065585        6.9448488316       20.8835847628
  C         2.7347031050        7.3391929041       18.7286913715
  C         3.3567155299        9.5556297906       17.8763855763
  H         3.4207711381       11.1948595168       19.1046206966
  C         0.6812825703        9.5926064997       29.0661581076
  C        -1.7660576849        9.4908129913       28.0963529640
  C        -1.1932706943       12.0977022786       30.3808075922
  C        -1.1506269073       13.4688836050       30.5244693227
  H         7.0509397971       12.8930804883       22.6378849211
  H         5.5884333236       11.9231828642       22.5581562929
  C         6.0254299871       12.8116880897       20.6968199506
  S         2.2356482434        5.4637823912       20.1939367039
  N         2.4978885133        5.9423893384       18.6758197125
  C         3.1629651771        8.0948200212       17.6193011000
  H         3.9157471849       10.0689160393       17.1415661246
  H         1.0399939736        8.9142145820       28.2935014631
  H         0.0868230651        9.0031216766       29.8268861291
  C         1.7488579368       10.4164250514       29.6575802507
  H        -1.6768598032        8.7488995091       27.3202583390
  H        -2.0784987133        8.9973270611       28.9741412883
  C        -2.9129668138       10.4320634618       27.6987722613
  H        -1.4976381178       11.3548922369       31.0516521007
  C        -1.4970125271       14.2113394994       31.7836089869
  H         5.0622972031       13.0392837067       20.3700787751
  H         6.1497133897       11.8619311489       20.3759831311
  C         7.0868362979       13.6619233149       20.0018612693
  C         3.5521792819        7.4511078495       16.4099050991
  H         1.9972738374       11.2895302072       29.0549215726
  H         1.4317800858       10.8730243324       30.5832562175
  C         3.0427021042        9.6792415493       30.1243406669
  H        -2.6047818570       11.0447297966       26.8387392551
  H        -3.1481191322       11.1902886966       28.4118936906
  C        -4.1657085744        9.7553730574       27.4478788658
  C        -1.6352682266       15.5819370685       31.8889561966
  C        -1.7422461448       13.4679251535       33.0781966773
  H         6.8169487099       14.7421575965       20.2710763960
  H         8.0488785803       13.4718316104       20.4623233610
  C         7.0380958802       13.2421969403       18.5194155548
  H         3.5254482358        6.4162286045       16.3893691768
  C         3.7363673494        7.9120575164       15.1337098636
  H         3.4205922407        9.0976815107       29.2335913959
  H         2.9340392335        8.8669715599       30.8705892222
  C         4.0800361997       10.5689406356       30.6190678319
  H        -4.1003079679        9.3143095292       26.4357660794
  H        -4.2636212643        8.9432408421       28.2190585987
  C        -5.3599182250       10.6777833197       27.5425041369
  N        -1.3952176943       16.4857645575       30.8667599738
  C        -2.0186557479       16.2963342617       33.0038860644
  C        -2.1906131484       14.1804638268       34.2112240645
  H        -1.7908613138       12.4187844214       33.0239076246
  H         7.7164389972       13.8665503083       17.9775749747
  H         7.4006598930       12.2688344253       18.2126489025
  H         6.0593406716       13.4772798193       18.1523318895
  S         4.0629537790        9.5238286355       14.6995254048
  C         3.8613253428        6.9712183674       14.0332729472
  H         4.0782980390       11.4618703863       29.9983047483
  H         3.7761284962       10.7676293535       31.6545659778
  C         5.4965544066        9.9218011659       30.7575079875
  H        -5.0952931118       11.4823139485       26.9837694334
  H        -5.4489147581       11.0248080718       28.5433306889
  C        -6.6911758417       10.1576804077       27.0194222920
  S        -1.6072209717       17.9980751755       31.2549628665
  N        -1.9513909887       17.7191548656       32.8448069266
  C        -2.4339965160       15.6331680759       34.1864639940
  H        -2.3006017953       13.6570961538       35.1963918131
  C         4.1812180772        8.8928819226       13.0341582650
  N         4.1660197673        7.5503140695       12.8646937495
  O         3.5907346725        5.7672799720       14.1835961445
  H         6.2068203390       10.5912313746       31.1893636340
  H         5.8316558880        9.7939921880       29.7141629575
  C         5.6274646516        8.6417111059       31.6014817887
  H        -6.6671756295        9.0891286748       26.8741191158
  H        -7.4169984824       10.1899083052       27.7045287249
  C        -7.2012742362       10.8849251794       25.7277554832
  C        -2.7980803497       16.3873021896       35.3174908492
  S         4.8257450898        9.8169657337       11.6976560133
  C         4.1892601298        6.8336519258       11.5751573783
  H         6.2076179563        8.9892668777       32.4862941366
  H         4.6346930230        8.4413915712       32.0549794266
  C         6.3205100523        7.5663786686       30.8352847807
  H        -6.3115709745       10.9243093468       25.1521825932
  H        -7.4255166489       11.9399978851       25.8610281675
  C        -8.3889735438       10.1527061342       25.1586383951
  H        -2.6550480071       17.4232048059       35.2084553535
  C        -3.3009487373       16.0760212757       36.5680049373
  H         4.9916628549        7.1966509779       11.0102037927
  H         4.4858628988        5.7903185085       11.7385335275
  C         2.8126586971        6.9892524273       10.8487214272
  H         7.3436382443        7.9496389068       30.6261354438
  H         5.8267801993        7.4237633664       29.8765746908
  C         6.4478429082        6.2981153769       31.6462652996
  H        -8.8289169977       10.6288687088       24.3225701283
  H        -8.2278133659        9.1287396448       24.7835026655
  C        -9.4920334715        9.9774243444       26.1543157719
  S        -3.8152402472       14.5228335683       37.2052821518
  C        -3.4753648816       17.2422041718       37.4818182767
  H         2.5161036203        6.2583002689       10.1605094331
  H         2.1064540293        6.9617610516       11.6431880064
  H         2.5657775801        8.0326604894       10.5182490074
  H         6.8738392767        5.4797015876       31.0395610361
  H         5.5735952242        5.9140538307       32.0954004942
  H         7.2085947169        6.4821192002       32.3932139229
  H        -9.4197610846        8.9989901908       26.6180362046
  H       -10.4576995007        9.8975447991       25.6012425455
  H        -9.4931848009       10.7529175678       26.9158937336
  C        -4.0841088717       15.4641130563       38.6972388649
  N        -3.9665780053       16.8222351140       38.6684648195
  O        -3.3015570265       18.4634880076       37.0992762057
  S        -4.4997767858       14.7322455934       40.2510427979
  C        -4.0006075374       17.6931830541       39.8457141613
  H        -4.2332564670       18.7063809105       39.5663776281
  H        -4.9223182775       17.3935833419       40.4129233677
  C        -2.6661215479       17.5945406351       40.6690485609
  H        -2.8243813051       17.0233031009       41.6102714463
  H        -1.8234154839       17.0824481931       40.1309707418
  H        -2.3065659271       18.6179228859       40.9004569190
