352
i=
  H         2.1208075459        3.5561088071       12.5845481297
  C         2.5995697062        2.5925672669       12.7923007541
  H         1.9022859006        1.8032400156       12.5182763706
  C         3.8967785622        2.2984708393       12.0467615259
  C         2.7617141031        2.3947524105       14.2311807252
  C         3.7696288199        2.2355049739       10.5077822392
  H         4.2462033088        1.3951230957       12.5397574449
  H         4.6926333314        2.9768018620       12.1716983107
  H         3.7193159574        2.4287516306       14.7130120019
  H         2.3451223686        1.4589635890       14.5076906273
  H         2.0268242455        3.0115038602       14.6834117382
  C         4.7764359467        1.1750711920        9.9098568686
  H         2.7600054021        2.0799241035       10.1804376688
  H         3.9714568813        3.3014233085       10.1360334410
  C         5.3854404618        1.7013660092        8.5715758015
  H         4.3624630503        0.1553642220        9.8843713517
  H         5.6496987034        0.9122716817       10.5655800040
  C         6.4809009239        2.7479417249        8.6995492456
  H         4.4825096156        2.0926330701        8.0176014356
  H         5.6476547157        0.8174042097        7.9826031655
  C         7.7651964593        2.2001562563        9.1939255731
  H         6.5015936316        3.3170306388        7.7421400268
  H         6.1554356773        3.4693984632        9.5100803783
  C         8.9638142819        3.1751719652        9.3194240987
  H         8.0199477040        1.3794853499        8.5136024734
  H         7.5631678066        1.7754934705       10.1401654456
  C         8.5510421349        4.4342513833        9.8851270811
  C         9.3986694542        3.7890077056        7.9697504401
  C        10.1245515454        2.4210139583       10.0476570606
  C         8.7984348331        5.5220982771        8.9922112579
  C         8.0226524371        4.8629904118       11.0424911784
  C         9.3068984630        5.1069459351        7.8202888657
  C         9.9288838087        3.1412715213        6.8302372315
  H         9.7562908434        1.9167812037       10.9671266445
  H        10.3126115473        1.6649079808        9.2887055898
  C        11.4015353525        3.2774737050       10.1122211261
  S         8.5801436762        7.0524218732        9.6706893069
  C         8.1081569641        6.2094807782       11.1367105871
  H         7.7978550462        4.0608523506       11.7662565653
  C         9.6809800591        5.6948888565        6.6292932783
  H         9.9972625586        2.0670898338        6.8480087898
  C        10.3182144037        3.7155571293        5.6543804726
  H        11.1569506560        4.2109544358       10.5594605891
  H        11.8713583080        3.5050224757        9.2138648325
  C        12.4327706929        2.7588774369       11.1805397410
  C         7.7745684718        6.9433711759       12.3845171260
  C        10.2722326202        5.0416258164        5.5126105179
  H         9.6869871667        6.7717445425        6.6184059214
  C        10.8591067079        3.3518518488        4.4742529277
  H        13.0862752770        3.6239556614       11.2382535498
  H        12.9472697232        1.8605001256       10.8133171549
  C        11.9106525650        2.5831102887       12.5738841911
  C         7.8335629905        8.3347341474       12.6439968388
  C         7.4710021709        6.1401480389       13.5115403134
  C        10.7693581938        5.7229015954        4.2738023026
  C        11.0998558992        4.4225214732        3.6138510687
  S        11.0839931858        1.7837251917        3.7025179676
  H        11.2594812025        3.4474549513       12.8091847627
  H        11.3748712981        1.6611486944       12.7491801896
  C        12.9902196608        2.6113854774       13.6061451622
  N         8.1050984452        9.2872488393       11.6828412955
  C         7.5575783458        8.8607359395       13.9149268708
  C         7.2480822455        6.6749950374       14.7444877833
  H         7.3499633156        5.0292548728       13.4427387038
  C        12.0521751745        6.5469096654        4.4951432267
  C         9.7471272683        6.5354200001        3.5299167354
  C        11.5366451306        3.9742487854        2.3630838754
  C        11.6273878713        2.5889055494        2.2379438578
  H        13.7398065146        3.3438762369       13.3622403162
  H        13.4449582773        1.6432376960       13.6070316035
  C        12.4999845950        2.8024630001       15.0318803086
  S         7.9490921160       10.7710197441       12.3669341163
  N         7.6911291078       10.2770111779       13.9495071208
  C         7.2756250131        8.0817598006       14.9895157205
  H         6.9377110896        6.0491128054       15.5219296007
  H        11.8738816221        7.2648717178        5.2693573310
  H        12.2558547020        7.0354862290        3.5498569744
  C        13.2302412621        5.7003779247        4.8988857428
  H         9.2674614718        7.2419181953        4.1937951624
  H        10.1832864622        7.2353672544        2.7929465717
  C         8.6476947418        5.6448544239        2.9252367087
  H        11.5757559859        4.6913235026        1.5486880059
  C        11.9552649567        1.8872334318        0.8982402707
  H        12.1170149690        3.8331948393       15.2444328468
  H        11.5331350119        2.2179297386       15.0354797405
  C        13.5188297505        2.2573806191       16.0880011444
  C         7.0709045437        8.7779621485       16.2433012139
  H        12.9659829780        5.1850522757        5.8286730062
  H        13.5095225264        5.0180111927        4.2021774795
  C        14.3912421187        6.5726235916        5.1405217105
  H         8.1528467386        5.0475079342        3.6849876481
  H         9.0142831587        4.9648530903        2.1501608635
  C         7.6382303550        6.5848264613        2.2351374458
  C        12.0365435987        0.4658370367        0.7504690832
  C        12.1293119400        2.7270160239       -0.3007825290
  H        14.4829822213        2.5487593470       15.7395198842
  H        13.6364222514        1.1870344352       16.1269233429
  C        12.9414177824        2.7777084874       17.3681004152
  H         6.8490415321        9.7868043128       16.0934040587
  C         6.8428023417        8.3026338559       17.5225216556
  H        14.3891018524        6.9530507193        6.1439716688
  H        14.4516908299        7.3476445422        4.4528673626
  C        15.7960572726        5.9215253208        5.0909929944
  H         7.2785873369        7.3516134801        2.9448824416
  H         8.1574723721        7.1583724042        1.4446517409
  C         6.5716694063        5.7276804544        1.5736859899
  N        11.9508896986       -0.4295997463        1.7709648943
  C        12.2941861447       -0.1521549001       -0.4551879478
  C        12.2987112926        2.0934613674       -1.5283517179
  H        12.1242660180        3.7787133760       -0.2532355255
  H        11.8764359357        2.5767116270       17.5293213422
  H        13.1690611251        3.8263430315       17.4576344631
  H        13.4301752070        2.1592278559       18.1488223968
  S         6.8143095602        6.6958358258       18.0528373710
  C         6.7627020795        9.3264140748       18.5420119095
  H        15.9452632078        5.1242985357        4.3446747368
  H        16.3830134705        6.7118956535        4.7616495321
  C        16.3395697876        5.4887761201        6.4861899040
  H         6.4351213318        4.6876085057        2.0185060793
  H         6.9365396505        5.6159304528        0.6016937503
  C         5.1764956975        6.2525020148        1.5195234747
  S        12.0511937091       -1.9147469777        1.1398387187
  N        12.4380308891       -1.5638830805       -0.3574112893
  C        12.4303615687        0.6181133413       -1.6385107212
  H        12.3237642632        2.7060208753       -2.3984410970
  C         6.3598512477        7.4329254429       19.6426620214
  N         6.3445837318        8.7516623922       19.7238569743
  O         6.7671730720       10.5263643668       18.2505574759
  H        16.3055658585        6.3122671165        7.2200450066
  H        15.6463530339        4.7831562359        6.9457741011
  C        17.7927442752        5.1262719314        6.5366875081
  H         4.5339492412        5.5961303801        1.0062364456
  H         4.8960926881        6.1776750242        2.5243103967
  C         5.1300817246        7.7345773994        0.9392123511
  C        12.7314361945       -0.1002375770       -2.8064061215
  S         6.1765047441        6.4264362871       21.1620311023
  C         6.2693423628        9.4186774943       20.9774197608
  H        18.1246659398        4.4690075739        7.3854899797
  H        18.0354362749        4.4813104346        5.6819053679
  C        18.7748759959        6.2748414486        6.5732075195
  H         5.2699408919        7.6517253881       -0.1096301474
  H         5.9813760661        8.3108374084        1.2944321279
  C         3.9441559593        8.5477713234        1.2568816180
  H        12.4400675899       -1.1409500807       -2.8110053239
  C        13.2598331771        0.2788132476       -4.0049328727
  H         5.5531596380        8.9142058996       21.6305751359
  H         5.8461293453       10.4108868180       20.8169715029
  C         7.7022675716        9.5170954280       21.5091324580
  H        18.3889399762        6.9683792193        7.2916662628
  H        18.6616550688        6.8522650626        5.6692793303
  C        20.1744428427        5.8672029128        6.9505617120
  H         3.9750313233        9.4368267589        0.7202070783
  H         3.1370699111        8.0030851858        0.7930519335
  C         3.8273793919        8.8859227745        2.7631230387
  S        14.0346096376        1.7567405651       -4.3857720898
  C        13.3542770108       -0.7582128867       -5.0404173914
  H         8.0152325084       10.6022197260       21.6606020541
  H         8.5062610337        9.1759821690       20.8142462442
  H         7.6979261391        9.0561474810       22.4560562250
  H        20.8997763671        6.2313860843        6.2515836796
  H        20.3211646830        6.2817280576        7.8844457874
  H        20.3070874303        4.7643779348        7.0439736038
  H         4.7396558837        9.3762626996        3.2529800007
  H         3.1975068589        9.7308419678        2.8856649125
  H         3.5683446492        8.0675685838        3.4410720503
  C        14.2876452057        1.0465093910       -5.9596963114
  N        13.9406628241       -0.2248776995       -6.0781820292
  O        12.8798686090       -1.8704752601       -4.8828993415
  S        15.1005728013        1.8566691416       -7.3228948777
  C        14.0119994252       -0.9604224656       -7.2731604770
  H        14.2212637533       -2.0218804232       -6.9999225546
  H        14.7677692362       -0.5177894360       -7.9027179282
  C        12.7450962636       -0.8711986523       -8.0824591128
  H        13.0918895606       -1.0779746601       -9.1337719959
  H        12.2612733131        0.1432211204       -7.9159064472
  H        11.8814240105       -1.5089804575       -7.8056735494
  H        -3.3189281493       14.6883881178       15.6270600409
  C        -2.8825541654       13.7227180734       15.8864951683
  H        -3.7701968086       13.1261875786       16.1067099449
  C        -1.9643481443       13.6496713121       17.1396566074
  C        -2.1645959548       13.2862908029       14.6984609612
  C        -2.6175293362       13.6727816547       18.5008670162
  H        -1.5512297757       12.6602566819       17.0494901641
  H        -1.0464583339       14.3204952680       17.2303012302
  H        -1.4654926134       14.0465117542       14.4267830340
  H        -1.7205818994       12.3572972905       14.7535678062
  H        -2.8802136130       13.2459470765       13.8625438891
  C        -1.5528183128       13.5637072410       19.6307929671
  H        -3.3834335613       12.9492384732       18.4795229876
  H        -3.2513921905       14.5937897024       18.5799854696
  C        -2.0955821629       13.5400225306       21.0741281161
  H        -1.0669431851       12.6933007588       19.3313689626
  H        -0.8089417821       14.3732332663       19.5247505228
  C        -1.0602627314       12.9690284740       22.0603902203
  H        -2.9574023089       12.9645981191       21.1877062350
  H        -2.3255130648       14.4744395846       21.5256831345
  C         0.0957296859       13.8751190983       22.5549620254
  H        -1.6226575016       12.6190726079       22.8831648887
  H        -0.7067010053       12.0294692827       21.7463198225
  C         1.3570551554       13.1818992367       23.1225105751
  H         0.5904668822       14.2940696479       21.6868090481
  H        -0.2156388318       14.7169486732       23.1624751666
  C         1.7147211165       11.9222192246       22.3951417669
  C         1.0000872895       12.4016613497       24.3931397263
  C         2.6816624265       14.0286096946       23.2512048446
  C         1.6347709893       10.7686729748       23.1849197135
  C         2.2509622948       11.6318974236       21.1231150145
  C         1.1747107817       11.0542522090       24.4622628161
  C         0.5228052122       12.8569315289       25.6594142502
  H         3.0523143242       14.4687508430       22.2897069518
  H         2.5100314570       14.8993140880       23.9147977448
  C         3.8160076717       13.2299317968       23.8979670967
  S         2.2077597004        9.4016429236       22.4237660210
  C         2.5532639877       10.2627385206       21.0132447526
  H         2.3582886069       12.4753657547       20.4005802823
  C         0.9925890028       10.2949365818       25.5525732811
  H         0.4003490631       13.9473526401       25.7884072902
  C         0.2258286440       12.1384660657       26.8181108409
  H         4.0232393281       12.5149257965       23.1320594956
  H         3.6388366732       12.5930406194       24.7525158940
  C         5.1206047709       14.0218750314       24.0378668351
  C         3.0253768142        9.5669396133       19.7629036650
  C         0.3858673502       10.7898477705       26.7713782966
  H         1.1614227753        9.2489610505       25.4648315422
  C        -0.1911991098       12.4403281697       28.0614477467
  H         5.7721035773       13.4820367251       24.6722539338
  H         4.9283141363       14.9574489223       24.5052437632
  C         5.9441042707       14.3160223798       22.7718495049
  C         2.9824170362        8.1890221747       19.5324400947
  C         3.3880065940       10.3507646394       18.5566411648
  C        -0.0483946552       10.0737673846       28.0626111616
  C        -0.3592090063       11.3359673614       28.8399118702
  S        -0.6003883638       13.9045746499       28.7881908438
  H         6.9748582873       14.6459760062       23.0357774139
  H         5.3464596026       15.0688489930       22.2128371065
  C         6.3761411437       13.1151505908       21.7909488772
  N         2.5236824135        7.2025350568       20.5107261706
  C         3.2775911260        7.6173005529       18.3105834797
  C         3.6940192594        9.8000220223       17.2736004300
  H         3.2215130839       11.3818963122       18.5313141090
  C         1.0973051700        9.3549444888       28.7854309995
  C        -1.2921011233        9.1480343172       27.8481323728
  C        -0.8828259056       11.7195921912       30.1176040740
  C        -1.0567381543       13.0916320109       30.2576627488
  H         7.2394650766       12.6296825928       22.1638196863
  H         5.6743338865       12.3055991135       21.8327392980
  C         6.3681536564       13.4983411817       20.3054652403
  S         2.7558491651        5.8214028082       19.8627710873
  N         3.2492982714        6.2081030590       18.3701972274
  C         3.6647396337        8.3701966645       17.1088747657
  H         3.7826279691       10.4325221522       16.3827484346
  H         1.3054835163        8.4294868807       28.2459032680
  H         0.7023298193        9.1504121044       29.7928529203
  C         2.3721112340       10.1009453606       28.9364889484
  H        -1.0026973906        8.4640467512       27.0868998433
  H        -1.4874281205        8.6446028064       28.7777696098
  C        -2.6020200947        9.8797181373       27.5424401398
  H        -1.1269041542       10.8932593191       30.7585304395
  C        -1.3493900514       13.8561942601       31.5127751605
  H         5.9860658949       14.5156066584       20.2897596594
  H         5.6185941137       13.0136974527       19.7275536298
  C         7.7521055716       13.3081645967       19.6696842154
  C         3.6708066856        7.6735533281       15.8291942486
  H         2.6274454510       10.4973128776       27.9477402583
  H         2.2549502417       11.0293489037       29.5591758308
  C         3.5394323103        9.1339729016       29.3123100647
  H        -2.4275897265       10.4881628824       26.6414016723
  H        -2.8334325563       10.6084290458       28.2310023028
  C        -3.7426078758        8.9231118047       27.3283210839
  C        -1.3411621686       15.2406265218       31.6659507429
  C        -1.6432534897       13.1482786958       32.7590408869
  H         8.4409519155       14.0060313325       20.2440182416
  H         8.0822161595       12.2223609487       19.7298489484
  C         7.6614824031       13.6209915615       18.2071747291
  H         3.3857714797        6.6241758036       15.9360405439
  C         3.9515571731        7.9652669303       14.5372634106
  H         3.8798113357        8.5776213725       28.4051468693
  H         3.0300703043        8.4639504973       29.9697222047
  C         4.6963360247        9.7768990730       29.9902751500
  H        -3.5064168082        8.2098484775       26.5498217679
  H        -3.9532219891        8.3189903395       28.2569350417
  C        -5.1339682391        9.5943087423       27.1258135346
  N        -1.1330133860       16.2136886024       30.6533652866
  C        -1.5807232214       15.8757266912       32.8593088143
  C        -1.8989389481       13.7787958617       33.9590113926
  H        -1.6915121179       12.0696725180       32.7217894335
  H         8.0983059145       14.5823348692       17.9704571853
  H         8.3296772729       12.8292740302       17.8081754114
  H         6.7294111311       13.5039044408       17.6898400699
  S         4.3372908750        9.5141881112       13.8506472403
  C         4.0005631378        6.7952848555       13.5796411296
  H         5.1126897863       10.6190220716       29.3991185484
  H         4.3653641900       10.2710980937       30.8879805489
  C         5.8537909460        8.8454868936       30.3227019213
  H        -5.3882198815       10.3282203659       27.8560678660
  H        -5.8122076676        8.7521279721       27.3381195550
  C        -5.2004659765        9.9731807404       25.6565551488
  S        -1.4623950152       17.6786742702       31.1977632124
  N        -1.7220342422       17.2522103016       32.7321464484
  C        -1.8572738223       15.2361415318       34.0939250792
  H        -2.0524611574       13.1633655819       34.8841768778
  C         4.3461795697        8.6106357944       12.2896237492
  N         4.3252347379        7.2898362813       12.3606685987
  O         3.8324003833        5.6401725891       13.9501795332
  H         6.8052197977        9.4533629482       30.5186745275
  H         6.1675077654        8.3933772158       29.3384698624
  C         5.5664653882        7.6548386047       31.1928572404
  H        -4.3495314456       10.6610107259       25.3685198572
  H        -5.1326383271        9.0345450573       25.0986729916
  C        -6.5019523754       10.5352801971       25.1581663993
  C        -2.1571555930       16.0020542622       35.2416290794
  S         4.8962276911        9.2421769370       10.7587870004
  C         4.1485530019        6.2849547560       11.2257875754
  H         5.3234364176        8.0855038507       32.1413717583
  H         4.6898355958        7.0682914565       30.9350751812
  C         6.6444941091        6.5670785154       31.2995697811
  H        -6.2799911046       10.8393622512       24.1840526301
  H        -6.6930572313       11.5196257228       25.6339090858
  C        -7.6673902721        9.6356851600       25.3182078080
  H        -1.6957238538       16.9200187744       35.1842556525
  C        -2.7890691050       15.7563447956       36.3639457883
  H         4.8099574343        6.3797596198       10.3446212230
  H         4.4150500890        5.3046224293       11.6077582267
  C         2.6731564496        6.2131198163       10.8056264210
  H         6.7540368725        6.3794887729       32.3672673224
  H         7.6178490882        6.8887866866       30.9246827820
  C         6.1317348404        5.4507349223       30.4106382437
  H        -7.6684526459        8.6577291427       24.7669148996
  H        -7.7332507595        9.2703748216       26.3712668501
  C        -8.9517608193       10.3698144930       25.0717891655
  S        -3.3664539779       14.2831123941       36.9964746537
  C        -2.7652096092       16.8772781296       37.3667194485
  H         2.3961729011        6.6953438731        9.8434958843
  H         2.4452659607        5.2703724532       10.5102650270
  H         2.0182310925        6.4855939585       11.5675612092
  H         7.0194553092        4.8880664206       30.0900422201
  H         5.4940107953        5.8236231659       29.5663765402
  H         5.4962690748        4.8064172008       31.0150938561
  H        -8.8098325230       11.1001661583       24.3267153143
  H        -9.3114028771       10.9533891896       25.9511275863
  H        -9.7084896763        9.6144176228       24.7503877497
  C        -3.7428520736       15.1935186545       38.4714841588
  N        -3.3447489732       16.4865468508       38.4955535635
  O        -2.3432629345       17.9831719878       37.1174863984
  S        -4.3210490883       14.4917097619       39.9656100563
  C        -3.2714055958       17.2900236807       39.6919798869
  H        -3.2651075255       18.3487558115       39.5588143390
  H        -4.2467132884       17.0976722524       40.1852414179
  C        -2.0933830967       16.7959194175       40.5612079334
  H        -2.1409025477       17.2608549554       41.5330194230
  H        -2.0080495298       15.7310109515       40.8256073375
  H        -1.1483415127       17.0777592205       40.2234023760
