352
i=
  H         2.4222635890        3.5125908278       12.2324957001
  C         2.9049259021        2.5071869896       12.1833983695
  H         2.3021633367        1.7831339103       11.5783509033
  C         4.3712062421        2.5564067232       11.6431262688
  C         2.7497493660        2.0948297756       13.6156541439
  C         4.2787106992        2.6629855469       10.1248959488
  H         4.9564653586        1.6319576517       11.7960806928
  H         4.9900119475        3.3539196865       12.1428277957
  H         3.7280902677        2.0202638949       14.0940088562
  H         2.3269643647        1.1016249968       13.6466087478
  H         2.0590706474        2.8054486651       14.0790465602
  C         5.1532372793        1.5715381650        9.4265415315
  H         3.2578160030        2.6204131389        9.7579622431
  H         4.8398012132        3.6077175207        9.9546213130
  C         5.7613870408        2.0378491139        8.1060189057
  H         4.6062530109        0.6474344737        9.1297744007
  H         5.9383090574        1.2106400331       10.1030678159
  C         7.0144696087        2.9481086879        8.3010498336
  H         5.0502593182        2.7709347074        7.6406164247
  H         6.0267520488        1.2320339121        7.4141097012
  C         8.2663089890        2.1870086184        8.8456212310
  H         7.2569109906        3.3522122109        7.3400780160
  H         6.8576999456        3.7100271870        9.0142526426
  C         9.5584722507        3.0927933410        8.9117981497
  H         8.4852326726        1.3601264231        8.1929676266
  H         8.0272241865        1.8193935087        9.8113384651
  C         9.1431065614        4.3884997798        9.5591162369
  C         9.9078138396        3.7443946390        7.5990225913
  C        10.7702069222        2.3138324253        9.5442452170
  C         9.3278387483        5.5118784878        8.7820794118
  C         8.7651006882        4.7409997815       10.8585862793
  C         9.8013530316        5.1003787815        7.5518228182
  C        10.3923449069        3.1567589208        6.4194465886
  H        10.5837614952        1.8238693358       10.5048471628
  H        11.1041063765        1.4549995078        8.9624527856
  C        11.9336775711        3.2131083153        9.8812563857
  S         8.9047607646        6.9553693702        9.5471049558
  C         8.5064272592        6.1179521867       10.9827100349
  H         8.6397896537        4.0047481699       11.5976341912
  C        10.1614877189        5.7437628748        6.4182438917
  H        10.4799318838        2.0695404166        6.4737175053
  C        10.6903852486        3.8699760159        5.3090014811
  H        11.6220508079        4.1319064142       10.3792779253
  H        12.4738632066        3.4541310589        9.0013499563
  C        12.8794821724        2.5539969666       10.9112967628
  C         7.9568851585        6.8550629211       12.1734526038
  C        10.5612136892        5.2008173943        5.2294699076
  H         9.9830318058        6.8730464588        6.2874343076
  C        11.0407819558        3.5345564900        3.9971471145
  H        13.8417954686        3.0821546417       10.9969510892
  H        13.0970987450        1.5503816252       10.5652256433
  C        12.3316492945        2.4766061346       12.3545682879
  C         7.9561794021        8.2554373514       12.4103032543
  C         7.4142262126        6.0442103504       13.3466909006
  C        10.9184106593        5.8928488009        3.9439788739
  C        11.3165513162        4.6225844233        3.1856567473
  S        11.2195370441        2.0435891206        3.2288247638
  H        11.8175032963        3.4163392990       12.5940468096
  H        11.7217933947        1.5533343366       12.3843715762
  C        13.3899409151        2.3834207933       13.3867032341
  N         8.4857196332        9.1879863159       11.5615534606
  C         7.5278637925        8.7767335211       13.6048528768
  C         7.0513128933        6.5518319806       14.5699062638
  H         7.3364882234        4.9930267298       13.2844904364
  C        12.0737017739        6.8694815633        4.1043093891
  C         9.7552536212        6.6311672340        3.2336595405
  C        11.5740850111        4.2596654906        1.9067105937
  C        11.6451152438        2.8704442163        1.7759450563
  H        14.1353172694        3.1373733731       13.3878861118
  H        13.9759806551        1.5138183260       13.2207909302
  C        12.7750427116        2.2689589018       14.7544505835
  S         8.2752741208       10.6388502339       12.2181741048
  N         7.5921801480       10.1474326048       13.6013653281
  C         7.1822840245        8.0207005889       14.7799603526
  H         6.5372962603        5.9167638386       15.2998298911
  H        11.8756839448        7.5452032066        4.9243335437
  H        12.1558663090        7.4859383691        3.2075667509
  C        13.4684449397        6.1468432916        4.2670323893
  H         9.5245515720        7.5582426859        3.8015867323
  H        10.1413764451        7.0913111072        2.2409164810
  C         8.4860085260        5.7674152923        3.0654604621
  H        11.7498837329        5.0540299304        1.1831757938
  C        11.9208331241        2.1388485345        0.4636545160
  H        12.1297816973        3.1331220868       14.9366480762
  H        12.0510811417        1.4495715618       14.6952469812
  C        13.8065157681        2.2063126269       15.8134185642
  C         6.8713873822        8.6375815271       16.0315818086
  H        13.4257867949        5.3616451639        5.0345523730
  H        13.7840893308        5.5580745016        3.4775568029
  C        14.5282422080        7.1434541207        4.7573650145
  H         8.0342465613        5.1601391459        3.8564512939
  H         8.8536488587        5.0152080896        2.3613394871
  C         7.4118798332        6.5312528661        2.3919024368
  C        11.9765875983        0.7229349027        0.3124792845
  C        12.0304441718        2.8740190115       -0.8010462236
  H        14.5003210488        2.9914743740       15.8232706350
  H        14.2498666170        1.1931050524       15.6499871896
  C        13.2489237683        2.3812857720       17.2005696804
  H         6.8966817261        9.7145333539       15.9808851446
  C         6.5071271366        8.1511128737       17.2674109171
  H        14.3036566518        7.5201321107        5.7627966537
  H        14.4271750434        8.0248387702        4.1260578073
  C        15.8923621461        6.5410575288        4.7579286737
  H         7.0198379180        7.3970293983        2.9221260987
  H         7.8224223462        6.9622029728        1.4979609545
  C         6.1922192534        5.6520457572        2.0336537639
  N        11.6646952774       -0.2104539074        1.3119606210
  C        12.2591230523        0.0937018822       -0.8724571321
  C        12.4991299450        2.2346132257       -1.9269671488
  H        11.8178479257        3.9404029544       -0.8833908664
  H        13.0505508284        1.4365543199       17.7158061804
  H        12.4119202086        3.0210411645       17.3469529161
  H        14.0147303067        2.8135625623       17.8585402186
  S         6.2911526733        6.5068441667       17.7020098123
  C         6.3810286620        9.1094949353       18.3701427774
  H        16.0536536473        5.8492865853        3.8698641738
  H        16.5382253647        7.3920700030        4.7987874663
  C        16.3275361500        5.6756166180        6.0498784264
  H         6.1213600539        4.8546698725        2.8406873844
  H         6.2393860245        5.1372818696        1.1062831121
  C         4.8667614195        6.5581393472        2.0991123261
  S        11.7984544433       -1.7508476856        0.7086943595
  N        12.2328685663       -1.2852171122       -0.8266765098
  C        12.5218081384        0.8096871868       -2.0098027509
  H        12.5330566006        2.8136671008       -2.8300265753
  C         6.2287172391        7.0804537833       19.3989009287
  N         6.0982408737        8.3965005397       19.4554831474
  O         6.3038511359       10.3466968909       18.1780373820
  H        16.2059677945        6.2965609849        6.9144161573
  H        15.5958635675        4.8811115574        5.9828648770
  C        17.7688093792        5.1179859572        6.0473327924
  H         3.9450426082        5.9902798055        2.0152319628
  H         4.7313360955        7.0986420792        2.9936593237
  C         4.8256596840        7.4435333099        0.9301178582
  C        12.6106532380        0.0723340098       -3.2020074581
  S         5.8071451255        6.0685853343       20.8443056145
  C         5.8177078231        8.9622742891       20.7571664191
  H        17.7576052676        4.0380964183        6.4199080412
  H        18.0234133747        4.9868997123        5.0116325440
  C        18.7971576584        5.9901416463        6.7940519539
  H         4.5280749367        6.9372585655        0.0237008840
  H         5.8313437581        7.8523175774        0.7145417417
  C         3.8162770828        8.6287375111        1.0903992456
  H        12.1799683088       -0.9126981261       -3.1139213815
  C        13.1453794818        0.3453922694       -4.4237331961
  H         5.0077765502        8.4970813297       21.3625108824
  H         5.4148518625       10.0018758581       20.7519995105
  C         7.0786322399        8.9762943153       21.5473188861
  H        18.6702909820        5.7417921389        7.8679278146
  H        18.6233862018        7.0504491952        6.7750897165
  C        20.2965766495        5.6318546461        6.3571125877
  H         3.3115850204        8.6931281022        0.1505024373
  H         3.0302037251        8.3735745752        1.7732496972
  C         4.3106733801        9.9937904555        1.5789337213
  S        13.9270998935        1.8551274521       -4.9057600987
  C        13.0885368586       -0.6828130120       -5.4619175277
  H         7.3348353357       10.0469377917       21.6561863627
  H         7.9391252208        8.6337797809       20.9777125130
  H         6.9173839858        8.5883341991       22.4937346079
  H        20.3745296160        5.6574233123        5.2409035447
  H        20.9168237268        6.3096019607        6.8620845197
  H        20.4523784382        4.5849847070        6.6636555187
  H         4.9014186347       10.5203918975        0.7472386661
  H         3.5517599793       10.6271218345        1.9016211216
  H         4.9382739200        9.7719679182        2.4401035638
  C        14.1772962364        1.0417121057       -6.4466263894
  N        13.6437189854       -0.1948402613       -6.6139464750
  O        12.4991740224       -1.7421971092       -5.3052079956
  S        14.7827649671        1.9255585655       -7.8953687476
  C        13.7003935197       -0.8945897304       -7.9008428669
  H        13.8757748915       -1.9469099376       -7.7131723828
  H        14.6670012756       -0.6610190036       -8.3996570681
  C        12.5575737260       -0.6713044696       -8.8077155354
  H        12.0805525459        0.3266397734       -8.6129894222
  H        11.7146461341       -1.3479476174       -8.6007148788
  H        12.7578318239       -0.7357308822       -9.8602479010
  H        -2.8579777910       14.5511580699       16.2562679701
  C        -2.7645537038       13.4939166771       16.3200968737
  H        -3.7769949370       13.2907187225       16.6273831188
  C        -1.5900780311       12.9927776248       17.3262428788
  C        -2.5154371817       13.1320859753       14.9192908266
  C        -1.7243470343       13.6218868595       18.6992633289
  H        -1.6210162209       11.9319474271       17.4842990673
  H        -0.5762674579       13.1410557332       16.8222698564
  H        -1.8314699549       13.9279557441       14.5308061954
  H        -2.0006088024       12.1733002739       14.7556922958
  H        -3.4438738633       13.0332007666       14.3294055490
  C        -1.5034819216       12.6587902553       19.8360408994
  H        -2.6920089250       13.9527673565       18.6879905333
  H        -0.9493912185       14.3988424911       18.7828236350
  C        -1.8299128468       13.1552879569       21.2551764919
  H        -2.2601327304       11.8897088864       19.6846089024
  H        -0.4786869758       12.1416965799       19.7949387434
  C        -0.9631692927       12.5638168645       22.3636357891
  H        -2.8135564279       12.6966777646       21.4330898491
  H        -1.9444983113       14.2170234789       21.3458235682
  C         0.2482787019       13.5695655776       22.6817070352
  H        -1.4590749557       12.6204973541       23.3189362069
  H        -0.8073826327       11.4937991654       22.2013236190
  C         1.4358243267       12.7595248963       23.3335045222
  H         0.4949323252       14.0141448483       21.7446711323
  H        -0.0475489873       14.3874648826       23.2908710783
  C         1.7191141729       11.4554942057       22.6515583677
  C         1.0092216640       12.0869803657       24.5714281449
  C         2.6077003041       13.7475875985       23.4956993753
  C         1.4764652855       10.3680896314       23.4421708734
  C         2.1852024314       11.1710930977       21.3805512719
  C         1.0606117971       10.7056530748       24.6705363478
  C         0.4288928585       12.6836885005       25.7595201872
  H         2.7808512496       14.4510619479       22.6232878514
  H         2.4048915068       14.4316687349       24.3090487250
  C         3.9482807811       13.1636099857       23.8807217156
  S         1.9333654714        8.9196373023       22.6193894727
  C         2.2154178140        9.8253435759       21.1945297264
  H         2.4552493007       11.9587133933       20.6801286600
  C         0.7133380069       10.0546598370       25.8285250804
  H         0.2312142190       13.7406269243       25.6505146349
  C         0.0813407177       12.0347192579       26.8859443287
  H         4.2778920111       12.6489781845       22.9860364559
  H         3.7585919878       12.4882476774       24.7250151233
  C         5.0506892563       14.2141162561       24.2492981778
  C         2.4983751836        9.1515131376       19.8601242256
  C         0.1764705439       10.6726932564       26.9730689249
  H         0.8808044521        8.9507893409       25.9305365317
  C        -0.4237338975       12.4466152007       28.0787178827
  H         5.8995110602       13.8172630634       24.7389966059
  H         4.7662895013       14.9230346783       24.9766531956
  C         5.4950136468       14.9013759559       22.9247689847
  C         2.5884650752        7.7622678333       19.6416190255
  C         2.6577257300       10.0044986719       18.5876611030
  C        -0.1874434658        9.9718170884       28.2519849939
  C        -0.5232707727       11.2973534740       28.9019119663
  S        -0.7968452871       13.9325335929       28.9129450239
  H         6.0997442219       15.7649069610       23.2305487757
  H         4.6270359830       15.3149382321       22.3409418105
  C         6.3840022649       13.9352620104       22.1121588307
  N         2.4758146278        6.7445944728       20.5939586260
  C         2.9496409352        7.2209747823       18.4004311611
  C         2.9406577538        9.4288305900       17.3627752556
  H         2.6166716775       11.0888266494       18.7716111670
  C         1.0524143329        9.2131262526       28.8118451129
  C        -1.4728859950        9.0378373856       28.1195841440
  C        -1.1403462188       11.6244028574       30.1658809952
  C        -1.2887768496       13.0109468865       30.2790229885
  H         7.3502676987       14.4933827843       22.0037641927
  H         6.5082458197       13.0399314414       22.6687955480
  C         5.7816563399       13.7825751292       20.7773002050
  S         2.5980110733        5.2981080507       19.8091599385
  N         3.0212580276        5.8421219057       18.3749104485
  C         3.0528683247        7.9625430141       17.1973621364
  H         3.1243881833       10.0657728174       16.5195141788
  H         1.4467822709        8.5553645340       28.0411826922
  H         0.7413036332        8.5084723083       29.5715740357
  C         2.1537078736       10.1026872095       29.4910259648
  H        -1.2649692618        8.3687500628       27.3650644246
  H        -1.4448628765        8.4107373821       29.0262605691
  C        -2.7344036074        9.8514201922       27.9117820262
  H        -1.3513074063       10.8129957769       30.8944617154
  C        -1.7320099914       13.7333243637       31.5402867129
  H         5.2461179495       14.6062442649       20.3896738833
  H         5.0732220611       12.9585147527       21.0019062205
  C         6.8513911173       13.3467941500       19.7588743574
  C         3.4695353967        7.3051350964       16.0127378742
  H         2.5213443437       10.8993924133       28.8375087281
  H         1.6838945080       10.7150793908       30.3053536019
  C         3.2959139470        9.2960313253       29.9594837505
  H        -2.6966841188       10.5306647344       27.0323154642
  H        -2.9431454102       10.4241358237       28.7990472224
  C        -3.8935345819        8.8917146865       27.8090161892
  C        -1.7123984739       15.1441358744       31.7635536297
  C        -2.0011969466       12.8408685801       32.7492823304
  H         7.9011960615       13.6919685101       19.9101387550
  H         6.7733227764       12.3008419924       19.8610510341
  C         6.3677765922       13.6413838175       18.3678077113
  H         3.5090466338        6.1904871862       16.0472041005
  C         3.6899336667        7.7484623694       14.7386861474
  H         3.7315041735        8.8149206178       29.0727552695
  H         2.9017213212        8.5048993106       30.5434394035
  C         4.3758588923        9.9809514172       30.8158957818
  H        -3.7391609015        8.2200829151       26.9618833975
  H        -4.1494027718        8.4413723735       28.7616741204
  C        -5.1427926345        9.5914927201       27.4177718787
  N        -1.4274291412       16.0778565337       30.7953565509
  C        -1.9466872701       15.6636282758       33.0214668026
  C        -2.2307775397       13.4263719379       34.0009578523
  H        -1.9435791203       11.8047815424       32.6516333874
  H         6.8157850265       14.5552403296       17.9273434079
  H         6.7377945376       12.7228105336       17.8920261540
  H         5.2870757183       13.6829478565       18.3598498515
  S         3.7635528048        9.4398507189       14.2326465797
  C         3.7746756159        6.8089118090       13.5863118828
  H         4.7412295659       10.8473989046       30.3211479559
  H         4.0732784113       10.3729065277       31.6964164179
  C         5.4459841472        9.0292953652       30.9939800004
  H        -5.1886748960       10.4283795475       28.0301462321
  H        -5.9947792195        8.9818958929       27.6606769413
  C        -5.2011672338        9.9373491746       25.9639830435
  S        -1.5266816491       17.4849462687       31.5470977688
  N        -1.8469681403       17.0382976902       33.0560731220
  C        -2.2023129557       14.8793031132       34.1792711748
  H        -2.4642614493       12.8382052293       34.7924169598
  C         4.0904666488        8.7630739946       12.5431349307
  N         4.0765587603        7.4270655912       12.4224020153
  O         3.7378468182        5.5409735478       13.6820568141
  H         6.2398407762        9.6147603307       31.4556896636
  H         5.8493029554        8.6716799789       30.0057618971
  C         5.1921175800        7.7233700050       31.8462706391
  H        -4.2666944153       10.3506743972       25.5755601508
  H        -5.2698258435        9.0218944507       25.4062509645
  C        -6.3786498930       10.8088668464       25.4896994910
  C        -2.4324769828       15.5760731867       35.4275272486
  S         4.6167311734        9.7696487663       11.2088925693
  C         4.0587580993        6.6491486101       11.1525573272
  H         4.6490927016        8.0799734095       32.7200880787
  H         4.6280710444        6.9721290334       31.2481346402
  C         6.4889143103        6.9581486638       32.1867298313
  H        -6.1434694828       11.3175464727       24.5921667188
  H        -6.4602802194       11.6173145278       26.2024341460
  C        -7.7195385613       10.0640006372       25.4243811715
  H        -1.9611995561       16.5723919175       35.4251694073
  C        -3.0281842983       15.2885081134       36.6251340459
  H         4.7602732375        7.0952792973       10.4585396831
  H         4.4248700736        5.6126624860       11.2210841128
  C         2.5557944198        6.6460672844       10.7243550277
  H         6.7440795851        6.7736223108       33.2408816531
  H         7.3785700040        7.5433758473       31.9400386114
  C         6.5284161529        5.6345977861       31.4375190871
  H        -8.0000108812        9.7889123896       24.4256076013
  H        -7.7517802914        9.2594634832       26.1767826047
  C        -8.8854396882       11.0525188287       25.7416103048
  S        -3.7296947848       13.7847939521       37.0383264684
  C        -3.0171771407       16.3220209315       37.6677623306
  H         2.3945199073        7.4518033034        9.9275000300
  H         2.2973332689        5.8524929931       10.0806994183
  H         1.8675263571        6.7480240219       11.5394236451
  H         7.2078788640        4.9671409188       31.8563894688
  H         6.7677175963        5.9914921896       30.4324109326
  H         5.6205367486        5.0855245622       31.3948592084
  H        -9.5821869970       10.4913495192       26.3300007400
  H        -9.2853311827       11.2917975219       24.7682174096
  H        -8.5814660465       11.9874128100       26.1922881923
  C        -3.8413690629       14.3807364359       38.6312372168
  N        -3.5872609191       15.7159011343       38.7640489224
  O        -2.5946648286       17.4961541095       37.4944009614
  S        -4.4691933694       13.4480262793       40.0150930254
  C        -3.7190101473       16.3109404078       40.1237011405
  H        -4.0627148602       17.3449539688       39.9270923260
  H        -4.5752996389       15.8709940330       40.6629197398
  C        -2.4310330942       16.2643137111       40.8976235570
  H        -1.7396497181       17.0212760812       40.4824948027
  H        -2.5821945080       16.4840512727       41.9997237935
  H        -2.0158075558       15.3084990985       40.8753717999
