352
i=
  H         3.2603344296        1.3125595744       13.9483766020
  C         4.0658409463        1.7972569506       13.3594986920
  H         4.8194407509        1.0621210888       12.9645042675
  C         3.4160187293        2.6239723964       12.2142441406
  C         4.8121571388        2.6487404106       14.4331550228
  C         4.0393088068        2.9116503612       10.8370739663
  H         3.2230881586        3.5714688413       12.6135031408
  H         2.4260524961        2.2211286474       12.0768870623
  H         5.0667998987        1.9653448728       15.2051868655
  H         4.1486156609        3.4743710302       14.7229258245
  H         5.7683618811        2.9779172907       14.1130264520
  C         4.3600593980        1.5910191833       10.1273013890
  H         3.3992000487        3.5100599390       10.2984204742
  H         4.9447002370        3.5515465831       11.0564793236
  C         4.9813243559        1.7166920664        8.7693481158
  H         3.3650501144        1.0832522015       10.1845327027
  H         5.0322721920        1.1319801470       10.8176916015
  C         6.2694958965        2.5035499624        8.7123331663
  H         4.2715349390        2.2650860387        8.1830857540
  H         5.1818283010        0.6701029917        8.3077902665
  C         7.5499206138        1.8108636743        9.3476953430
  H         6.4898048827        2.8637774214        7.7348845266
  H         6.1460179274        3.4840436912        9.1545358451
  C         8.7742472546        2.7592219995        9.5633261081
  H         7.8861244347        0.9219688069        8.7622835726
  H         7.3565949997        1.2975423028       10.2427333826
  C         8.3891199958        4.0541238866       10.2273067161
  C         9.1989306494        3.4269123322        8.2821745697
  C         9.9433875301        1.9694739316       10.1841021197
  C         8.6036167326        5.1572808466        9.4001420427
  C         7.8878192901        4.4583544914       11.4899557533
  C         9.0769306360        4.8026116607        8.1707519299
  C         9.7405054914        2.8654261627        7.1584029094
  H         9.5297141393        1.3681656222       11.0507455131
  H        10.2831615339        1.2872476902        9.4219100833
  C        11.2305086230        2.7870306859       10.4620512415
  S         8.0124605246        6.6741257100        9.9705498708
  C         7.7335599738        5.8477449347       11.4496410802
  H         7.8534204513        3.7524138790       12.2867048264
  C         9.4782361092        5.4889290142        7.0195840569
  H         9.8928780320        1.7694003587        7.1699659427
  C        10.0783242036        3.5332508669        5.9592379907
  H        10.9940404425        3.8001955359       10.6480713377
  H        11.8646559431        2.7778256585        9.5515917296
  C        11.9905755296        2.1063578174       11.5812114448
  C         7.4878418244        6.5709673664       12.7004239788
  C        10.0345291146        4.8717511367        5.8556716233
  H         9.4202921589        6.5878334698        7.0395434802
  C        10.6242282640        3.1471997961        4.7684226770
  H        13.0284812420        2.2057487415       11.3039628051
  H        11.8536273372        1.1000725555       11.6453563420
  C        11.7756852208        2.5908342236       13.0273563950
  C         7.6154152613        8.0002428554       12.8688378149
  C         7.2247309727        5.7926682367       13.9673492381
  C        10.4796545127        5.6006325948        4.6128436137
  C        10.8425474438        4.2644176495        3.9442760554
  S        10.9815073411        1.6404859413        4.0758178107
  H        12.0319057568        3.6585762998       13.0847762224
  H        10.7465146379        2.5615592385       13.2842782961
  C        12.6650981617        1.8182585855       14.0794313966
  N         8.0302789455        8.9031007704       11.8720180443
  C         7.4033496132        8.5636666027       14.1314788214
  C         6.9301059279        6.4136184331       15.1821299188
  H         7.1226258749        4.7268012343       13.9710680693
  C        11.7520921721        6.5119859524        4.8990672666
  C         9.3531918636        6.3216621111        3.8321970007
  C        11.2514803667        3.8644811085        2.6676298154
  C        11.3202799369        2.4715272305        2.5895601699
  H        13.6808192185        2.0496536771       13.8922545337
  H        12.5706130540        0.7525947787       13.9803904348
  C        12.4172275698        2.2786685892       15.5436782227
  S         7.9762132175       10.3880518421       12.5058876906
  N         7.5092589133        9.9709430166       13.9874085615
  C         7.1102457086        7.8400099076       15.3375052917
  H         6.7418311840        5.7668298712       16.0432720882
  H        11.6434325455        7.1057723397        5.7844058764
  H        11.7653384744        7.2463919705        4.0877064709
  C        13.0132882943        5.7661758987        5.0473210837
  H         9.2385789096        7.3135271695        4.2986434538
  H         9.7905729322        6.5467898062        2.8215090789
  C         8.0265936369        5.6947087733        3.6316652803
  H        11.3315696522        4.6166623555        1.8269963710
  C        11.6515755357        1.7098530894        1.3323938800
  H        12.4846511116        3.3489044545       15.5109398111
  H        11.3792932098        2.1006166923       15.8880976410
  C        13.3389533863        1.6364485553       16.5357865556
  C         6.9481248169        8.5478714777       16.5688454071
  H        12.9562926281        4.9253221012        5.7547647200
  H        13.1569137901        5.3000796462        3.9891251894
  C        14.3307089977        6.4575203418        5.4877956462
  H         7.4234438426        6.3071096967        4.2824423942
  H         8.1213600634        4.6189744830        4.0497496369
  C         7.5403967478        5.6753984169        2.2106660006
  C        11.7222790603        0.2772964754        1.1396190253
  C        11.8880655195        2.5284876801        0.0833996990
  H        14.3840437428        1.7534183444       16.2735290852
  H        13.2145126547        0.6128711325       16.7312849814
  C        13.1167224713        2.2546558807       17.9250429993
  H         7.1012077434        9.6074257217       16.3569784152
  C         6.8345463182        8.2742301168       17.9097525780
  H        14.1394463666        7.2111729737        6.2950281556
  H        14.7483885491        7.0642556981        4.6634342936
  C        15.3970302305        5.4305553352        5.9645331800
  H         7.7474079076        6.5456208321        1.6082201714
  H         8.0358873080        4.7905322266        1.6860039392
  C         6.0358760231        5.3236876543        2.0643326306
  N        11.2877365243       -0.5959065928        2.0937239964
  C        12.0252737830       -0.3266150059       -0.0280784376
  C        12.3178680138        1.8724125493       -1.0390391214
  H        11.7542598356        3.5774438198        0.1048483492
  H        12.5202247610        3.1275752279       17.6835813697
  H        13.9342283858        2.6355579474       18.5339310411
  H        12.4816914107        1.6400338320       18.5987129086
  S         6.7082653804        6.6995677270       18.5168818484
  C         6.7571404439        9.3750272720       18.8886453776
  H        15.5940704542        5.7584314676        6.9877784927
  H        15.0769607428        4.4103482653        5.8836629194
  C        16.6635260163        5.5695226166        5.2050616681
  H         5.7325602412        4.5209062890        2.7069139773
  H         6.0970869778        4.8397937247        1.1011213322
  C         5.0095386804        6.5001693203        1.9695121704
  S        11.3831118240       -2.1108877374        1.5223090870
  N        11.9758394462       -1.7368078110        0.0903717483
  C        12.4084716887        0.3709844050       -1.2001291335
  H        12.5334316336        2.5241254978       -1.8845686365
  C         6.5813653921        7.4874730320       20.0689466158
  N         6.5861151166        8.8393828306       20.0730971739
  O         6.5725497034       10.5429227966       18.6122037507
  H        16.7206086566        4.9153354412        4.3701558072
  H        16.8122561285        6.6677821959        4.9425893891
  C        17.8712852025        5.2282492811        6.1088380496
  H         4.0696778156        6.1788287253        1.5970989094
  H         4.6697368189        6.8027472722        2.9972622713
  C         5.3436401879        7.7740928348        1.2171256833
  C        12.7705725454       -0.3917070803       -2.3449933295
  S         6.1181973590        6.7208276195       21.5799037982
  C         6.6371652998        9.6490136120       21.2338423267
  H        17.7210140557        4.2708517818        6.5924949841
  H        18.7298943943        5.0877861207        5.5105407661
  C        18.3667762988        6.3566085477        7.0804621467
  H         6.0975557727        7.6021304187        0.4442806790
  H         5.8282402494        8.4459682298        1.9768184179
  C         4.1262183826        8.4426033973        0.6723876256
  H        12.7107856460       -1.3945634016       -2.2044683218
  C        13.2613126656       -0.0736167393       -3.6036137442
  H         6.0000528436        9.2031901162       22.0565202825
  H         6.0676468168       10.5390400931       21.0205257970
  C         8.0999917219        9.9457553516       21.7196041323
  H        17.5756893079        6.7636200011        7.6262717627
  H        18.7484592343        7.1355680987        6.4305136048
  C        19.4302905258        5.9539837884        8.0336766311
  H         4.1735128907        8.1862999619       -0.3383654992
  H         3.2656784701        8.0580148168        1.1786384477
  C         4.0548360774        9.9333150723        0.8890294528
  S        13.5346058143        1.5068250117       -4.2500538423
  C        13.4070098064       -1.1543832687       -4.6140621523
  H         8.4960797001        8.9924618583       21.9645887805
  H         8.2932265101       10.4830474484       22.6632774437
  H         8.7061838609       10.4222052487       20.9336808978
  H        18.9064959269        5.2599304146        8.7272385712
  H        20.2274009546        5.3206061727        7.6842193767
  H        19.7992249176        6.8231220061        8.5740435080
  H         3.3145123091       10.3286760699        0.2210717411
  H         3.6988936858       10.2830801193        1.8574117281
  H         4.9376793462       10.4195342514        0.4922557429
  C        13.8727315253        0.7158759830       -5.7876323186
  N        13.7595831165       -0.6597735524       -5.8376571855
  O        13.1688914944       -2.3457268383       -4.3441061874
  S        14.4668895086        1.5720257542       -7.1364711043
  C        13.9478731835       -1.4775579427       -7.0593473683
  H        14.2150814996       -2.4733032735       -6.7823541376
  H        14.7288682230       -1.1979295752       -7.7721065298
  C        12.5835408999       -1.6078299226       -7.7221550485
  H        12.2587420421       -0.6572156731       -8.1514637801
  H        11.8158375809       -1.7993470145       -6.9875946008
  H        12.6364464055       -2.2542686514       -8.5868023823
  H        -2.0442021872       15.1011089978       15.6803852810
  C        -2.6886890834       14.3325597715       16.0504394504
  H        -3.5887664735       14.8867491536       16.3772915882
  C        -1.8527363375       13.7282341260       17.1941174920
  C        -2.9583510515       13.2037404733       14.9620457339
  C        -2.2457747356       13.9798561434       18.6199190381
  H        -1.9502005178       12.6349900127       17.0631641765
  H        -0.7437472330       13.9679282854       17.1369359377
  H        -2.3296472158       12.3347781037       14.7802782107
  H        -4.0210858395       12.8949900590       15.0182997416
  H        -2.8747885211       13.8135529839       14.0637423924
  C        -1.1915538727       13.4750233700       19.7508580399
  H        -3.1309475717       13.3153005029       18.7188117037
  H        -2.4955147964       14.9933401770       18.7354882112
  C        -1.9094680686       13.2853305604       21.1020873894
  H        -0.6633177315       12.6353848809       19.4010767932
  H        -0.5454468442       14.3168089371       19.8905186094
  C        -0.9496756772       12.8201973878       22.2383482984
  H        -2.6464025627       12.4477854002       21.0312503650
  H        -2.5304810756       14.1559857726       21.2983194240
  C         0.1437579876       13.8177598917       22.6388731274
  H        -1.5555619073       12.5039502059       23.0559192244
  H        -0.5106232785       11.8632140947       21.8781436825
  C         1.3621411891       13.2444824532       23.3440037096
  H         0.5820250977       14.2402095725       21.7062104949
  H        -0.3061709705       14.5905854740       23.2141403677
  C         1.7292952806       11.9758837490       22.6156257743
  C         0.9115533018       12.4975171050       24.6146199146
  C         2.4929054138       14.2629754444       23.5009994061
  C         1.5145787717       10.8963428046       23.3807934281
  C         2.1932232364       11.6384035506       21.3179536151
  C         1.0089188432       11.1582055163       24.6525906932
  C         0.4358343071       13.0521414655       25.7968317967
  H         2.5681323003       14.7414203355       22.5332034837
  H         2.1980860933       14.9683411685       24.2646570947
  C         3.8403804423       13.5965582662       23.9374544865
  S         1.8622535598        9.3576560258       22.5060522301
  C         2.3006124981       10.3044690237       21.1256047930
  H         2.5603942212       12.3580930212       20.5966058639
  C         0.6092152271       10.4736878051       25.7811454110
  H         0.4586066680       14.0866085476       25.9148620615
  C         0.1415398300       12.3991233064       26.9513025245
  H         4.1944739020       12.9256092841       23.1633994794
  H         3.7030525993       12.9891223112       24.8457844630
  C         5.0738661661       14.5429841455       24.0831969326
  C         2.7801335071        9.7366016963       19.7641020750
  C         0.1881905972       11.0439837705       26.9696753673
  H         0.7574020592        9.4292919063       25.6990727065
  C        -0.2707988894       12.7916240815       28.1756301947
  H         5.8111736487       14.2220060083       24.7796420202
  H         4.7688912914       15.5306877586       24.5822818150
  C         5.5394870664       14.8566597061       22.6702272973
  C         2.9473743306        8.3532276191       19.5571908897
  C         3.1996087221       10.5098401461       18.6041466001
  C        -0.0543305254       10.3444247348       28.2600964745
  C        -0.3728257934       11.6853154224       28.9822637718
  S        -0.5212585620       14.2545246202       28.9636463510
  H         6.0048635175       15.8695471417       22.7140905520
  H         4.7474136804       15.0166297860       21.8869204113
  C         6.5620944776       14.0076983788       21.9958373765
  N         2.8247491000        7.4577601308       20.5927426873
  C         3.2506378196        7.7529820257       18.3392325742
  C         3.4906467397        9.9525152135       17.3526039123
  H         3.1620343803       11.5645190494       18.6493238169
  C         1.1801358177        9.5913216871       28.9918594784
  C        -1.3410667300        9.5706643792       27.9806571002
  C        -0.7551728161       12.0130456292       30.2598348145
  C        -0.8679696869       13.3561316748       30.4193503091
  H         7.3938770272       14.5599023399       22.2946644679
  H         6.5578965860       13.0120677005       22.4865621091
  C         6.2823755537       13.9172109841       20.4759618306
  S         3.0493764343        5.9473868649       20.0523349815
  N         3.2245079502        6.3530969161       18.4870922110
  C         3.5132979637        8.4705279915       17.2017118401
  H         3.6951926502       10.7325899783       16.5795207046
  H         1.5249733724        8.8864959050       28.2262869238
  H         0.8314508534        8.9577985116       29.8034983887
  C         2.3992771900       10.4680820356       29.3683999448
  H        -1.0546068610        8.9361916141       27.2001163693
  H        -1.5355962569        9.0582938278       29.0005067148
  C        -2.6382638578       10.4036719170       27.5641706366
  H        -1.0022026102       11.2168881435       30.8832159044
  C        -1.2567629118       14.0892858183       31.6792868912
  H         5.7679052615       14.7619054570       20.0612414922
  H         5.5956578153       13.1123039762       20.2957320233
  C         7.6154918337       13.6843155819       19.7309511391
  C         3.7444349511        7.7717302113       15.9936288023
  H         2.8277598869       10.8653994013       28.4127723775
  H         2.0386387375       11.2932634464       29.9403931446
  C         3.5037168438        9.6408000366       30.0807877761
  H        -2.5671168581       10.8928354819       26.5864485826
  H        -2.8181627933       11.1462923443       28.3804272865
  C        -3.7284173646        9.3128559569       27.4667446184
  C        -1.2297691540       15.4992929239       31.9130573741
  C        -1.4055439200       13.2805814462       32.8911375382
  H         8.3476809381       14.4668650042       19.9079211621
  H         7.9489633454       12.7344833693       20.0382760829
  C         7.3741682989       13.6413351240       18.2596143029
  H         3.5281473390        6.7546144195       16.0540111334
  C         4.0067417072        8.0972800632       14.7183422923
  H         4.0831271814        9.2168263857       29.3310180901
  H         3.1329643495        8.7844791549       30.6102874617
  C         4.4105393245       10.4044042929       30.9975651813
  H        -3.5595872107        8.7968512129       26.5758695561
  H        -3.7919990205        8.6957838525       28.3495964659
  C        -5.1353234222        9.9350480083       27.3783101744
  N        -1.0165850613       16.4855181175       30.9704418057
  C        -1.4881743836       16.0922371513       33.1460102185
  C        -1.7853329372       13.8949204285       34.1520624887
  H        -1.2711662751       12.1964152804       32.8849838925
  H         6.7473280024       12.7844142874       17.9439126854
  H         6.9061636467       14.5373394329       17.9314595738
  H         8.2457237567       13.6487566810       17.6475750450
  S         4.1847872427        9.6818123149       14.1146409979
  C         4.0393463078        6.9716573335       13.7066160106
  H         4.3468303015       11.5021851264       30.8261251720
  H         4.0713754018       10.2936126378       32.0310624495
  C         5.9349488089       10.0546019219       30.8606258398
  H        -5.2178353215       10.5731307321       28.2177623865
  H        -5.8522181325        9.1372769075       27.4344614678
  C        -5.4470046483       10.7522426916       26.1327471689
  S        -1.0051321440       17.9776625693       31.6323459244
  N        -1.4340062348       17.4754355786       33.1136133201
  C        -1.9729862146       15.3502172389       34.2949629313
  H        -1.9782353362       13.2587809528       34.9798908140
  C         4.2789536040        8.9305766807       12.5117207033
  N         4.1612592988        7.5809691610       12.4629147045
  O         4.0105861888        5.7423729341       13.9253939073
  H         6.3855695926       10.9547515059       31.3821369738
  H         6.3146243943       10.2294914113       29.8709520553
  C         6.1776919001        8.6648136859       31.5219836298
  H        -4.7588006649       11.6006484339       26.0640481506
  H        -5.1931397740       10.1013446915       25.3073242042
  C        -6.8991782992       11.2079844773       25.9326607444
  C        -2.2222493479       16.0122343331       35.5621630417
  S         4.7036198678        9.9395087072       11.1663098341
  C         4.0209577859        6.7936586505       11.2568733803
  H         6.7651173361        8.8502342525       32.3965644279
  H         5.2251823335        8.2996475092       31.9277181932
  C         6.7030223962        7.5890780655       30.5312924286
  H        -6.7981416145       11.8038115925       25.0129724758
  H        -7.3227940522       11.9120451454       26.6929598022
  C        -7.8291184711       10.0141894228       25.7563351535
  H        -1.9976042308       17.1040457828       35.5766756582
  C        -2.7026968410       15.5720057368       36.7486930776
  H         4.6069283563        7.2574571599       10.4846063531
  H         4.4861865082        5.8285811430       11.4482970240
  C         2.6228939393        6.5932650581       10.7316345059
  H         7.5268174253        8.1667501252       30.0377131485
  H         6.0191460402        7.3730536761       29.6977875810
  C         7.1992700422        6.3470541384       31.2860954387
  H        -7.3131358507        9.3179526751       25.0566184977
  H        -8.0150861851        9.4663023075       26.6873215847
  C        -9.1292056933       10.4093714484       25.1563098603
  S        -3.2257899939       14.0256536718       37.0724549884
  C        -2.8582975300       16.5599479817       37.8009307177
  H         1.8512622842        6.5575184502       11.4738434884
  H         2.4949866773        7.5003151473       10.1352092188
  H         2.5569998972        5.6365999853       10.2460280650
  H         7.8714067554        6.6193061090       32.1407988743
  H         7.6422602399        5.6615780711       30.5051700091
  H         6.3894182495        5.8006280883       31.8338717548
  H        -9.2106340415       10.3742227084       24.1173028447
  H        -9.4262198330       11.4000605127       25.5251595392
  H        -9.9944883933        9.7959878289       25.5794068492
  C        -3.6762545438       14.6393100378       38.6207116198
  N        -3.5260593753       15.9919469819       38.8397459155
  O        -2.5623031478       17.7519723811       37.7810374693
  S        -4.1537867196       13.5956342581       39.8773596781
  C        -3.8709487038       16.6728002667       40.0908729175
  H        -4.1814715689       17.6779575998       39.7342532659
  H        -4.7798353839       16.3608072412       40.5361222394
  C        -2.8126723077       16.5416619012       41.1858053855
  H        -2.3675033898       17.4504792918       41.3709813952
  H        -3.2402385312       16.1691906957       42.0736014775
  H        -2.1388924848       15.7391861103       40.8618618810
