352
i=
  H         2.5534910311        1.7030865007       12.5671123328
  C         3.3112424558        2.4255516729       12.8181573458
  H         4.1094925278        1.7801910261       12.7221419909
  C         3.1675333822        3.4543139805       11.7382776164
  C         3.1347125185        3.0354071982       14.1558004031
  C         4.3806349533        3.5375141540       10.8353192333
  H         2.7970363727        4.4939928730       12.0775828167
  H         2.3501377354        2.9691919757       11.1990771904
  H         3.3942280102        2.2786914123       14.9051547207
  H         2.1821719251        3.5450211442       14.3690670733
  H         3.8645933120        3.7745585042       14.3586952333
  C         4.7464974329        2.1639534405       10.1730577471
  H         4.1837436121        4.3403971744       10.1371425931
  H         5.2668893190        3.7635750872       11.4055989564
  C         5.2166716986        2.2088946596        8.6911695486
  H         3.9778205026        1.4122699633       10.3060589694
  H         5.5616783371        1.7229081594       10.7546593509
  C         6.5002839137        3.0172691439        8.4720118140
  H         4.4071931890        2.6545498398        8.0222112808
  H         5.3928801489        1.1366943949        8.4940300571
  C         7.7854258592        2.2351800180        8.8600694770
  H         6.5040340904        3.2255747748        7.3589013297
  H         6.4341784277        4.0062145505        8.9525586644
  C         9.1588467730        3.0410076501        9.0620271987
  H         7.9186285335        1.5831305653        7.9713188831
  H         7.5416683267        1.4477955146        9.5607158098
  C         8.9091310035        4.3682242841        9.8097064375
  C         9.6981234170        3.7455075152        7.8754567645
  C        10.2740705623        2.1901068027        9.6552916609
  C         9.2603447923        5.4632272193        9.0894883829
  C         8.2639913830        4.7431089666       11.0061731201
  C         9.8065652944        5.0784031791        7.9114695728
  C        10.1909168904        3.1801235163        6.7397834458
  H         9.9770637200        1.8462019432       10.6433059191
  H        10.4633281393        1.2810136860        9.0710330800
  C        11.5942735829        2.9392836755        9.9320810689
  S         8.9308225161        6.9951727498        9.8449051425
  C         8.1392292725        6.0897180227       11.1094057994
  H         7.8336091184        3.9976365620       11.6274191851
  C        10.1378982368        5.7362186850        6.7752431751
  H        10.0535698576        2.1070740436        6.6770045172
  C        10.6059687054        3.8203922393        5.6292833271
  H        11.3322260560        3.9231409640       10.2693779278
  H        12.1572097146        3.2133833605        9.0163397564
  C        12.5568782352        2.2570450284       10.8906457351
  C         7.6317620663        6.7428782434       12.3643677577
  C        10.4981655546        5.1325385172        5.5710491271
  H        10.1061043609        6.8267390379        6.7868153945
  C        10.9577820265        3.4344582716        4.3468012084
  H        13.5578905259        2.7678173864       10.8865621836
  H        12.7486367493        1.2388684012       10.5598272776
  C        12.0098705890        2.1892036352       12.3179279587
  C         7.6578487608        8.1368141442       12.5889097378
  C         7.1496219610        5.9607618498       13.5402885002
  C        10.9199230338        5.8467498861        4.3496683038
  C        11.1785625542        4.5383699411        3.5544730261
  S        11.2875990793        2.0060956278        3.4793938066
  H        11.6926681349        3.1961250539       12.5270262637
  H        11.1361478673        1.6386372098       12.3533933533
  C        13.1069553962        1.7398409301       13.2390921396
  N         7.9997129111        9.1628516150       11.7076084831
  C         7.3897690730        8.6895309480       13.8568582681
  C         6.8881747144        6.4981461255       14.7994228553
  H         7.1095659764        4.9190860366       13.4082005137
  C        12.2797462628        6.5829326983        4.5620830843
  C         9.8489987801        6.7659199913        3.7511372199
  C        11.6612596672        4.2570769678        2.2911756423
  C        11.7240531615        2.8890381968        2.0687899899
  H        13.7091689695        2.6304772924       13.4972421944
  H        13.8734017437        1.1694845033       12.7810380350
  C        12.4754736590        0.9303938143       14.2732996847
  S         7.8952729754       10.6132678433       12.4212690892
  N         7.4563858136       10.0857747786       13.9086747809
  C         7.0001257310        7.9714389051       15.0077017256
  H         6.6645711431        5.8125462006       15.5778376139
  H        12.2701174109        7.2056373400        5.4302136476
  H        12.4207824043        7.1881355351        3.6446839560
  C        13.4765211598        5.6040957676        4.8468425262
  H         9.5243736171        7.4931175737        4.4706528260
  H        10.3795517860        7.2444652459        2.9231386123
  C         8.4573083261        6.1605040371        3.4298995815
  H        11.8534483902        5.0363123332        1.5338593590
  C        12.0523471003        2.1767264812        0.7721724037
  H        11.5758355856        0.4569749478       13.9076189561
  H        13.1256236509        0.0686405056       14.4730021040
  C        11.8863181939        1.6944599252       15.3917395110
  C         6.8955548666        8.6064858920       16.3168137578
  H        13.1732097217        5.0325021665        5.6916562195
  H        13.6937681345        4.9137304673        3.9925460769
  C        14.7951608594        6.3934641509        5.2582017083
  H         7.8959861530        6.0249997339        4.3528102467
  H         8.5126379534        5.1046022194        3.0797802275
  C         7.4828455011        6.8979804741        2.4139322186
  C        12.1821593990        0.7657538910        0.6084902374
  C        12.1699037608        2.9687850664       -0.5026233764
  H        11.1098811995        1.0331192058       15.8447451338
  H        11.2890318442        2.4361147930       14.8404761380
  C        12.7931798504        2.4062316174       16.4557677090
  H         7.2005756517        9.6516118691       16.3270206359
  C         6.4160003251        8.1507849614       17.5215359940
  H        14.4989133668        7.0287729350        6.1342097142
  H        15.0628167027        7.0081034254        4.4662520750
  C        15.9035057917        5.5753834240        5.7466985488
  H         7.1934023167        7.8098971701        3.0177480560
  H         8.0223825455        7.2211292895        1.5053015023
  C         6.2277151044        6.1078054497        2.1006492192
  N        11.9247811678       -0.1753354096        1.5675443218
  C        12.5067226556        0.1876674645       -0.6069014296
  C        12.2912266610        2.2860301032       -1.6958194561
  H        11.9062082429        3.9765551895       -0.4781173708
  H        13.7701289344        2.8379654379       15.9820586750
  H        13.0665905210        1.6581181763       17.1761887232
  H        12.2384165035        3.1582135498       16.9733569506
  S         5.8850310496        6.4921928238       17.9643667317
  C         6.4090423158        9.1345171898       18.6838690908
  H        15.5080576093        4.7989243545        6.3521246960
  H        16.4250210426        5.0304054698        4.9240545453
  C        16.8685224367        6.3999847284        6.5586106739
  H         5.8362000073        5.7190739789        3.0403620293
  H         6.5173623483        5.2208060309        1.5662632536
  C         5.1986436446        6.8569285813        1.2743346445
  S        12.2868636986       -1.6822269684        1.0280603572
  N        12.6098062071       -1.1986075746       -0.4773659311
  C        12.6688510786        0.8701467951       -1.7932867139
  H        12.2566731446        2.8136361096       -2.5791892356
  C         5.9513124495        7.1695752571       19.6388954586
  N         5.9005597913        8.4982447736       19.7988248707
  O         6.6410941197       10.3662722580       18.5364223919
  H        17.3011539219        6.9916848990        5.7767233408
  H        16.4044384723        6.9511335082        7.3576535649
  C        17.8224812106        5.3981870279        7.1641229269
  H         5.7102412551        7.4237569423        0.5223766147
  H         4.5694330946        6.1263329015        0.8234297076
  C         4.4339480693        7.8679071593        2.0876205784
  C        13.0525030702        0.2362920619       -2.9954166171
  S         5.5386968116        6.2019939806       21.0443177892
  C         5.8757240780        9.1906837059       21.1212836057
  H        17.2333388852        4.9714899912        7.9662624837
  H        18.0227611351        4.5261281941        6.5509563861
  C        19.0642721970        6.0423247721        7.6637951094
  H         5.1163329735        8.1573247847        2.9391124491
  H         3.6203571626        7.3198399061        2.6270319188
  C         3.9965089374        9.1166632431        1.3011860939
  H        12.9707905576       -0.8420127572       -2.9235350721
  C        13.5836436364        0.6768103414       -4.1579785681
  H         5.3785072432        8.7595792661       21.9222806364
  H         5.3821999132       10.1882364450       20.9571367578
  C         7.3710624684        9.4161141363       21.5772295382
  H        19.4893092902        5.4129655276        8.3906846836
  H        18.7279393668        6.9801506650        8.1123109922
  C        20.0241523839        6.1891085338        6.5493719995
  H         3.5216154308        8.7778441957        0.4074667590
  H         3.1045933170        9.6208393001        1.7740060376
  C         5.1290968525       10.0554338792        1.0797267356
  S        14.0960248183        2.2544194905       -4.4978188506
  C        13.7966838344       -0.3454416120       -5.2371765722
  H         7.4750686498        9.2900838771       22.6899246610
  H         7.6210398478       10.4619670245       21.3162036177
  H         8.0745030849        8.7180435779       21.0743333816
  H        20.4464357719        5.2514930196        6.2036981360
  H        19.4871069421        6.7374232054        5.7484266857
  H        20.8927333808        6.7586960310        6.8869131977
  H         5.5870628426       10.3409561714        2.0284795565
  H         5.8978092166        9.5966917382        0.5133253480
  H         4.8521753123       10.9666901941        0.5359779333
  C        14.6050566363        1.5049764075       -6.0386217002
  N        14.3543073013        0.2358522835       -6.2375027682
  O        13.5071084352       -1.5121959788       -5.2197376407
  S        15.3914191608        2.5211993385       -7.3121416944
  C        14.4983654661       -0.4175924836       -7.5205523203
  H        14.7087200813       -1.4676003242       -7.4823905933
  H        15.3296482017        0.0612925036       -8.0723092904
  C        13.1376966288       -0.3634015261       -8.2585040433
  H        12.6265951654        0.6135493938       -8.2320689106
  H        12.4586029202       -0.9580580504       -7.8724222439
  H        13.2841092772       -0.5907360949       -9.3597873849
  H        -2.7325471058       15.6506123642       15.8345901334
  C        -3.1682128817       14.8428695239       16.5003664723
  H        -4.1103041431       15.2484770384       16.8701050297
  C        -2.1644915461       14.6254574874       17.6015363908
  C        -3.3123329884       13.5905824708       15.7235248167
  C        -2.7599530562       13.9236688320       18.8966368745
  H        -1.3805752300       14.0149248263       17.3072999899
  H        -1.8219905808       15.5090806785       17.8815582266
  H        -2.4095844651       12.9248757507       15.7365885280
  H        -4.0972735943       12.9261604285       16.1587583050
  H        -3.5216627793       13.7157967001       14.6790185954
  C        -1.5583387416       13.7877728514       19.8507829680
  H        -3.0027310492       12.9048760213       18.6805254292
  H        -3.5720545379       14.4097587595       19.4461545741
  C        -1.9604889777       13.6189749712       21.3119384997
  H        -0.7655993357       13.0789121456       19.5893486642
  H        -1.0171786015       14.6745517352       19.9079094656
  C        -0.8091691069       12.9672573673       22.1340139083
  H        -2.8118246042       12.9402540339       21.3237949902
  H        -2.3710443729       14.5327210041       21.7515850333
  C         0.3637470589       13.8438757636       22.5368211553
  H        -1.2607393101       12.5444509216       22.9761587000
  H        -0.5499682390       12.0319771921       21.6133912946
  C         1.4803012662       13.1856388288       23.3769868388
  H         0.8465313733       14.4005691444       21.6937552143
  H        -0.0619533447       14.5864323394       23.1313022416
  C         1.7765914176       11.7884356178       22.7210544053
  C         0.8823680173       12.4530310465       24.6003166217
  C         2.7416276091       14.0953376109       23.6700197678
  C         1.4625358785       10.7058869346       23.5223191217
  C         2.3412258735       11.4405573000       21.4725603091
  C         0.8699469741       11.1001120071       24.7170667187
  C         0.3914191973       13.0202644751       25.7864995706
  H         2.8482147099       14.7597044654       22.8298518404
  H         2.5680451825       14.6021356726       24.6124613081
  C         4.1312451394       13.3892628867       23.7602407409
  S         1.7245065497        9.1894510509       22.6975188513
  C         2.3101340465       10.0974623707       21.3525500435
  H         2.5284617807       12.3151786188       20.8157815354
  C         0.4180088132       10.4927914448       25.8343176346
  H         0.3451114802       14.0766132801       25.7331222747
  C        -0.0282996681       12.4130435852       26.9019356574
  H         4.2087220639       12.8717046405       22.8511891798
  H         4.0335587888       12.6690280154       24.5694214856
  C         5.4147754815       14.2840457572       24.0777252073
  C         2.5738898266        9.5557385780       19.9897731344
  C         0.0620643062       11.0730624126       27.0478540492
  H         0.4695560465        9.3759913328       25.8663976948
  C        -0.3855789781       12.7823700411       28.1519179874
  H         6.1620484923       13.6782492325       24.6234063350
  H         5.1476574379       15.0817354483       24.6707004333
  C         5.9852173418       14.8131749901       22.6492208152
  C         2.3791173856        8.1819366515       19.6600778693
  C         3.0750017344       10.4100734524       18.8680183533
  C        -0.3706644546       10.3288536367       28.2806670270
  C        -0.6249344307       11.7090413172       29.0259204662
  S        -0.5325406652       14.3686801389       28.8890119989
  H         6.4633488043       15.7785767940       22.6921633939
  H         5.0331770814       14.9425024691       22.0677880264
  C         6.7212341488       13.7321683068       21.8419779056
  N         2.0278641420        7.2194301130       20.6031826445
  C         2.6748738069        7.6530283946       18.4744506419
  C         3.3364365578        9.8709698469       17.5858705838
  H         3.3158653684       11.4017689647       19.0490079773
  C         0.8431755595        9.5911769867       28.8834489366
  C        -1.6912478768        9.5100142880       28.0614566273
  C        -1.1143019577       12.1651875150       30.2514448095
  C        -0.9812266529       13.5061710338       30.4344737146
  H         7.7408987879       13.6180577753       22.0390515779
  H         6.1541026068       12.7947260450       22.0353732231
  C         6.6649639477       13.9334507597       20.3354033121
  S         2.0188226423        5.7293300427       19.8761744820
  N         2.5543046224        6.2499967056       18.4142194079
  C         3.0571409714        8.4271514724       17.3425200427
  H         3.7194763805       10.4847409984       16.8728286274
  H         1.0219558635        8.6388352322       28.3035184671
  H         0.4691613947        9.3023705100       29.9230742000
  C         2.1291649483       10.4605419465       29.1090936651
  H        -1.3145783699        8.7449720491       27.3408418106
  H        -2.0204947692        9.0878621585       28.9594625338
  C        -2.8380853486       10.2364867046       27.3348342878
  H        -1.4018838862       11.4502854464       31.0450049754
  C        -1.2704938752       14.2361291232       31.6803326672
  H         6.1404258562       14.8830548088       20.2548964994
  H         6.0299887572       13.1381909701       19.9265491439
  C         7.9464680901       13.8743730602       19.5038301409
  C         3.2387584837        7.8483860461       16.0606452657
  H         2.3413715726       11.0309075148       28.2739393138
  H         1.9024737422       11.1059491476       29.9681339158
  C         3.2969925690        9.4953909548       29.5817237689
  H        -2.5746679078       10.2885720647       26.2883401133
  H        -2.8449714495       11.1642304778       27.8484220335
  C        -4.2503398829        9.5421292210       27.3052906202
  C        -1.3173696499       15.6414066858       31.8540498772
  C        -1.4833963560       13.4109216828       32.9182097477
  H         8.6537046678       14.7240950257       19.6689440164
  H         8.4483894698       12.9190509182       19.6405115609
  C         7.5619918943       13.9741216402       18.0333539792
  H         3.0023090718        6.8133082065       16.0436510751
  C         3.6284074088        8.3438883266       14.8207885739
  H         3.2312205304        8.6572102087       28.9412395488
  H         3.0348532834        9.2441288470       30.5963613257
  C         4.6340875264       10.1786990974       29.6932421899
  H        -4.2652727537        8.5671895540       26.8124848496
  H        -4.5139921032        9.1347271233       28.2522083965
  C        -5.2668958769       10.5660894045       26.7190824835
  N        -1.1578911704       16.6056932658       30.8851903001
  C        -1.6348254692       16.2046550544       33.0965883433
  C        -1.7286899375       13.9652683850       34.1400907685
  H        -1.3927049684       12.3256840427       32.8762267970
  H         8.4087430298       13.9257632580       17.3679120939
  H         6.9868231141       13.1154016809       17.7124867083
  H         7.0579796282       14.9474640841       17.8960346781
  S         3.9030940153        9.9625318301       14.3606497196
  C         3.7811828654        7.3384575302       13.7695869227
  H         4.7198916953       10.9617093222       28.9458922716
  H         4.6274282501       10.7572515511       30.6509357394
  C         5.7912011679        9.1500749262       29.5973037530
  H        -4.6897501452       11.1750650731       26.0153915463
  H        -5.5993461740       11.3630253215       27.4424806544
  C        -6.4295076456        9.7932472546       26.1048970295
  S        -1.3574137672       18.0292878993       31.5393371381
  N        -1.7982050803       17.5730167260       33.0574889492
  C        -1.8062140522       15.4379036222       34.2999893553
  H        -1.9299173858       13.3337960647       35.0007801342
  C         4.1959388099        9.3196657160       12.7916488670
  N         4.1735543862        7.9495784098       12.6202650792
  O         3.6047324068        6.1285107631       13.9616919328
  H         6.6899965271        9.7383072905       29.5198421962
  H         5.7632522728        8.5606659520       28.6596380861
  C         5.7589429876        8.2409536946       30.8514656084
  H        -6.0436132949        9.1270490201       25.2908292676
  H        -6.8864074981        9.0316278371       26.7959730572
  C        -7.5362743281       10.7699123953       25.5986949315
  C        -2.2670343093       16.1129906067       35.4251805602
  S         4.5586167749       10.2704541278       11.4225411445
  C         4.2671258320        7.2616823844       11.2856823674
  H         6.0629637522        8.8048753423       31.7475967396
  H         4.7155453025        7.9802736318       31.0374303821
  C         6.6344700947        6.9646084542       30.5875088505
  H        -7.1826042899       11.3447072841       24.7816154296
  H        -7.8250650864       11.5942757958       26.2446905823
  C        -8.7275152236       10.0027879260       24.9742599503
  H        -2.1752870832       17.2158163649       35.3779757515
  C        -2.7189814440       15.7654694470       36.6719602600
  H         5.1116954780        7.6631792181       10.6794737992
  H         4.5071465006        6.2144431308       11.3878162292
  C         2.9019444322        7.2304239108       10.6172427994
  H         7.6574508865        7.1396760912       30.4998683458
  H         6.3131201704        6.5458092294       29.6785767878
  C         6.3367595120        6.0426054722       31.7906748724
  H        -9.0518733915       10.5444608185       24.1232398529
  H        -8.2691685722        9.0272961429       24.8373963481
  C        -9.8652544545        9.9132984905       26.0219592381
  S        -3.2314352950       14.2243415520       37.2056494220
  C        -2.8905218887       16.8496910721       37.6288230086
  H         2.5064066458        8.2285266305       10.4024277838
  H         2.9036251172        6.7417737382        9.6527609312
  H         2.3277185452        6.5820888854       11.2664245362
  H         5.2434530966        6.0409144269       31.9606518638
  H         6.8174344257        6.3821581417       32.6829948852
  H         6.5793092293        4.9710554729       31.6519252893
  H        -9.5277837572        9.0970391823       26.7704681183
  H       -10.8371400622        9.6654842102       25.5190584568
  H       -10.0266833844       10.8466793193       26.5536629631
  C        -3.4191069180       15.0455478028       38.7852412616
  N        -3.3948302285       16.4107297085       38.7278212548
  O        -2.6393197286       18.0917648397       37.4254903499
  S        -3.8026575939       14.2401777600       40.2997661237
  C        -3.5575074293       17.3614514733       39.8331474767
  H        -3.9917390158       18.3135197382       39.5827984366
  H        -4.1942054482       17.0374202713       40.6001505076
  C        -2.2436247771       17.6460150331       40.5420032524
  H        -1.7125800921       18.4947973168       40.1238072227
  H        -2.4857803923       17.8057724673       41.6207290523
  H        -1.6096872955       16.7898312169       40.3040387880
