352
i=
  H         4.2414265989        1.2500205561       12.3519531054
  C         3.6085677513        2.1402931761       12.2473388892
  H         4.2759739199        2.9830996431       12.2343924564
  C         2.7062824409        2.2361043715       11.0400885758
  C         2.9193218763        2.3011501048       13.6177797173
  C         3.5508779303        2.5604818927        9.7340655096
  H         1.8052309925        2.9144828183       11.2954377764
  H         2.1486856426        1.3247003799       11.0188949836
  H         3.5688554055        2.6211655158       14.3758897276
  H         2.4093500380        1.4022665918       13.8260536751
  H         2.1749521264        3.0686413161       13.6554970582
  C         4.7561341409        1.6245853717        9.5495923412
  H         2.9566034875        2.4609019174        8.8440460341
  H         3.8127133077        3.6791987352        9.5520073705
  C         5.5537208704        1.8540168341        8.2915993521
  H         4.3014811549        0.6291602010        9.5679988855
  H         5.3891929028        1.6410301271       10.4180541745
  C         6.6255818773        2.8273874386        8.5256129002
  H         4.9264156848        2.1806300139        7.4762593812
  H         5.8899709100        0.9071559519        7.9014284889
  C         7.9187550401        2.2713925622        9.0096740335
  H         6.9214192282        3.3960251145        7.6141591396
  H         6.1782668138        3.5348721457        9.2527168762
  C         9.1061815932        3.2899643106        9.2151676501
  H         8.2394597023        1.4356121747        8.4129813045
  H         7.6473363594        1.7581140284        9.8926970940
  C         8.6266282720        4.6145917925        9.7884743890
  C         9.5542860561        3.9709025549        7.9677954905
  C        10.2151824105        2.6668895717       10.0561840933
  C         8.8374592957        5.7000441912        9.0017055124
  C         7.8784063492        4.9989974521       10.9102752977
  C         9.3377103290        5.3026401295        7.8051466799
  C        10.0708147656        3.3048318880        6.8553231405
  H         9.8904482059        2.2773224349       10.9725754564
  H        10.6115533110        1.8295303526        9.4539096720
  C        11.4714778947        3.5492785520       10.1407422330
  S         8.1751299999        7.2111621309        9.5932169501
  C         7.7320936194        6.3460439100       11.0154141918
  H         7.6311361222        4.2341685477       11.6531133860
  C         9.7719662983        5.9512072912        6.6756953804
  H        10.2529805134        2.1968670628        6.9698300195
  C        10.4457493048        3.9500743469        5.7230797762
  H        11.2107030189        4.5506810910       10.4502771992
  H        11.9547735747        3.6597717052        9.1886147253
  C        12.5277753581        3.1013227223       11.1377211666
  C         7.2973991683        7.0109733123       12.2746179724
  C        10.2738517160        5.3056980355        5.5490851085
  H         9.6570789872        7.0680482625        6.6347539386
  C        10.8413000952        3.5365365718        4.4695373903
  H        13.3964185522        3.6510390771       10.8839833258
  H        12.8705150147        2.0474232050       10.9041888104
  C        12.0206494003        3.2056578788       12.5403113669
  C         7.3209947790        8.4442223835       12.5545582808
  C         7.1395733935        6.0895444335       13.4793362907
  C        10.8086580138        5.9845740916        4.3691035335
  C        10.9901361777        4.6796329682        3.6471851752
  S        11.0649409398        2.0171996934        3.7280361437
  H        11.6883665591        4.2079205461       12.7624612403
  H        11.1805136185        2.4849579206       12.7821092816
  C        13.1104738190        2.8431002726       13.5524226924
  N         7.6884894046        9.4192906219       11.6084072693
  C         7.1355941830        8.9756103142       13.8355129967
  C         6.9522673838        6.6739393944       14.7257493217
  H         6.9631386404        5.0087157531       13.3884585581
  C        12.0532188817        6.7637755197        4.6586798569
  C         9.7089021160        6.8526124409        3.7778685168
  C        11.4819385379        4.2201692778        2.3867023545
  C        11.4696562310        2.8471484787        2.2600153279
  H        13.6369974581        3.7971598485       13.7502228329
  H        13.6365079837        1.9918527583       13.1350381969
  C        12.4845968247        2.3355847517       14.7978349581
  S         7.4996363699       10.8486015281       12.3472432263
  N         7.2620826181       10.3015535672       13.8772696650
  C         6.9083027746        8.1515878461       14.9642246216
  H         6.6542023462        5.9954088924       15.5128576440
  H        11.7521094957        7.4605618507        5.3487731168
  H        12.2537778771        7.4016994775        3.7390548779
  C        13.1986181222        5.9179882981        5.1461204822
  H         9.4689845161        7.7181090139        4.4419627482
  H        10.0833508435        7.2038890907        2.7895625726
  C         8.4372731028        6.0384222067        3.4500575258
  H        11.4897748563        4.9517256159        1.6314004335
  C        11.7153437257        2.1681611360        0.9311511096
  H        11.5584733796        2.7555248417       15.1379396822
  H        12.2568192006        1.2808566887       14.7771863666
  C        13.3859897911        2.5317933494       16.0109620988
  C         6.7104947488        8.7614073292       16.2231534806
  H        12.9807267249        5.4698091553        6.1433090452
  H        13.5019055349        5.1271360632        4.4054892220
  C        14.5382632196        6.5918602735        5.2382429765
  H         8.0536748068        5.5023450952        4.2853675528
  H         8.6029630800        5.3219186072        2.6342900173
  C         7.3790798846        7.0333887321        2.8826626644
  C        11.6837963998        0.7775714993        0.7602085803
  C        11.9495230903        2.9348900664       -0.3392616344
  H        13.9967392602        3.4041928489       15.8836979743
  H        13.9878742510        1.6075431890       16.0717577355
  C        12.6076924282        2.6880462987       17.3450096471
  H         7.0193634058        9.7841550056       16.3266481232
  C         6.5370804264        8.2270661471       17.4815754031
  H        14.5434989578        7.6689019710        5.4614174000
  H        14.8780897265        6.5461275751        4.2057872081
  C        15.4674128951        6.0143047296        6.2750225377
  H         7.0734613754        7.7246660902        3.6586923813
  H         7.8410451888        7.7626992657        2.2363324311
  C         6.1240952051        6.2658192952        2.2385574105
  N        11.5379869666       -0.1926784465        1.8135472815
  C        11.9857268505        0.1896644905       -0.4506952042
  C        12.0658643197        2.3350227104       -1.5425699549
  H        12.0717347815        3.9568355942       -0.2496699471
  H        12.3229686533        3.7312993622       17.4895342625
  H        13.1871787453        2.2893526577       18.2387297894
  H        11.7279164191        1.9922096551       17.5018459024
  S         6.4592989869        6.5192981647       17.7918090896
  C         6.3528960503        9.1385725262       18.6855886755
  H        15.2847870000        6.3880886091        7.2122199736
  H        15.3429966399        4.9380112782        6.4803819469
  C        16.9316400996        6.0923944950        5.9377585732
  H         5.6531969753        5.7496188338        3.0737847822
  H         6.4078786402        5.6242889246        1.3968358022
  C         4.9959395816        7.2101862605        1.6909919297
  S        11.9134679222       -1.7341281397        1.2463137868
  N        12.0298030510       -1.2619480534       -0.3335816895
  C        12.0954840609        0.8839762678       -1.7065472795
  H        12.2818784706        3.0252883673       -2.3562848313
  C         6.0269169198        7.0327773635       19.4647715847
  N         6.0643803758        8.3578820446       19.7317194907
  O         6.3462915119       10.3662082308       18.6301176122
  H        17.0781393064        5.3112064805        5.1808273191
  H        17.0859711660        7.0598056914        5.4818333498
  C        17.8900390693        6.0124331708        7.1415476705
  H         5.3138505526        7.5232432051        0.6871152012
  H         4.1449321830        6.5832507476        1.5020724275
  C         4.7435762650        8.4770394598        2.5842393271
  C        12.4742892980        0.1470453934       -2.8836386054
  S         5.4474790137        5.9589133136       20.7098693183
  C         5.8507938656        8.9171293495       21.0812147598
  H        17.6877521344        6.8047239623        7.8873965463
  H        17.7835715908        5.0442970546        7.5663566982
  C        19.3468121553        6.0695694387        6.7794017505
  H         5.5486524983        9.1918972001        2.5552626790
  H         4.6029974220        8.1639677681        3.6584257504
  C         3.4182879056        9.1660269050        2.1276023229
  H        12.0463851661       -0.8914580980       -2.8363580310
  C        13.0796273299        0.4318562014       -4.0806778685
  H         5.3313960383        8.2681772319       21.7554303893
  H         5.2536648837        9.8484813050       21.0162528418
  C         7.2827527733        9.1708865355       21.6700940785
  H        20.0899849927        6.1838908316        7.5960169368
  H        19.4638277013        6.9628935577        6.3326841185
  C        19.7536911531        5.0219461322        5.7445872200
  H         2.5268413511        8.4713963944        2.1769207017
  H         3.1311598492        9.9911417184        2.7905610243
  C         3.5503509651        9.7812154410        0.7057417415
  S        13.7571875702        1.9313308305       -4.5425020358
  C        13.0340637287       -0.5877662653       -5.1282745874
  H         7.9145156622        8.2591309548       21.4540468031
  H         7.3312195603        9.3861100996       22.6974647921
  H         7.8205681693        9.9315306347       21.1284420236
  H        20.8496381012        5.0030033398        5.6581630670
  H        19.3507576067        4.0309482752        6.0375870671
  H        19.4641825195        5.2698689632        4.8342579294
  H         4.5485693063       10.0968386665        0.5451982511
  H         3.3532708576        9.1226830742       -0.1688464915
  H         2.9010289284       10.6333531351        0.6160395032
  C        14.1030939417        1.1302519098       -6.1059954639
  N        13.7407486001       -0.1392538570       -6.2060671998
  O        12.6457013422       -1.7403433587       -4.9438694255
  S        15.1357634435        1.8270540470       -7.3071098318
  C        13.8799843128       -0.9656512060       -7.4240460480
  H        13.9257502204       -2.0056584961       -7.2226160433
  H        14.8419940942       -0.7456064533       -7.9406952975
  C        12.7574185854       -0.6392767938       -8.3084373626
  H        11.8241884181       -0.4812907830       -7.8037235073
  H        12.5381266216       -1.5673136681       -8.9864025459
  H        12.9510524148        0.1581045801       -9.0707819919
  H        -2.6812274866       13.1029986933       16.6472786783
  C        -2.1314668007       13.9893911608       16.7543201344
  H        -1.1412947661       13.6895222722       17.1266280991
  C        -2.7131904210       14.9861783663       17.8428630998
  C        -2.0494644833       14.5596263599       15.3536855828
  C        -3.1533380716       14.2393675690       19.0658008442
  H        -2.0058349647       15.7138442809       18.2334779383
  H        -3.5847843584       15.5888155089       17.4956476498
  H        -2.2947930485       13.8463961191       14.6009200196
  H        -2.7795548384       15.4356466350       15.3466899659
  H        -1.0697829441       14.9615399082       15.0361646197
  C        -1.9821547570       13.8530981807       19.9288237841
  H        -3.6544055999       13.3635450063       18.6594953188
  H        -3.7843080419       14.8087500097       19.7396080915
  C        -2.3260711798       13.9047619350       21.4343505144
  H        -1.6696283821       12.8138151575       19.7995780764
  H        -1.1744151717       14.5807201703       19.7789581327
  C        -1.3527215549       13.1127295777       22.2684914059
  H        -3.3170377365       13.5064481201       21.5485923227
  H        -2.3410350025       14.9709560463       21.7887000623
  C        -0.0660067825       13.9730647425       22.4630122912
  H        -1.8922217230       12.9598703643       23.2614130822
  H        -1.0146906816       12.1279464937       21.8627870952
  C         1.0237499276       13.2412492404       23.2015499766
  H         0.1675379030       14.3216972259       21.4689489232
  H        -0.3581990548       14.8453459931       22.9690685834
  C         1.4156504763       11.9577266943       22.5227337932
  C         0.5997646818       12.5378173060       24.4514872073
  C         2.2455835140       14.1916688552       23.2941222154
  C         1.1995620127       10.7866410136       23.3233073871
  C         1.8836424805       11.5418280329       21.2157456633
  C         0.7606519995       11.1993145624       24.5413032060
  C         0.1535770706       13.1379639125       25.6386675704
  H         2.6362876455       14.5608435690       22.3566422009
  H         1.9587607599       15.0139153822       23.8682828314
  C         3.4613017958       13.5680038772       24.0289650960
  S         1.6845858618        9.3346529837       22.5570706930
  C         2.0893471434       10.1415881189       21.0965751242
  H         2.0616131292       12.1717359842       20.3715992920
  C         0.3002180081       10.5433615024       25.6746178944
  H        -0.0216307490       14.2530627222       25.7283046906
  C        -0.0258805057       12.4731198553       26.8062745748
  H         3.5921231361       12.5914571111       23.7979996402
  H         3.1630242349       13.6468133483       25.0498519417
  C         4.8177055738       14.2322914009       24.1411924656
  C         2.4716715918        9.3769436880       19.8771989280
  C        -0.0250588141       11.1505122787       26.8448060462
  H         0.0918732982        9.5354522581       25.5660177738
  C        -0.3734694149       12.9272021136       28.0780804361
  H         5.5359879379       13.6572325540       24.7213347468
  H         4.6547490566       15.1405842777       24.6533182502
  C         5.4579477813       14.3851682828       22.7973449900
  C         2.4549134663        7.9615325155       19.6967530637
  C         2.9670981210       10.1354405251       18.6869072465
  C        -0.4656937426       10.5303336130       28.1670175647
  C        -0.6033244326       11.8556676129       28.9042553706
  S        -0.6354360576       14.4963088353       28.7692910176
  H         6.2180725643       15.1485589505       23.0137497209
  H         4.9043620859       14.9345639524       22.0748027548
  C         6.1903722274       13.1714925517       22.2371396866
  N         2.0664909120        6.9937399245       20.6455847633
  C         2.7521505761        7.2932300913       18.5446804978
  C         3.3686022443        9.4592149225       17.5058595288
  H         3.1041801802       11.1747113148       18.7186071753
  C         0.4617669927        9.6842740829       29.0727590514
  C        -1.8520718931        9.8830374413       28.0629019799
  C        -1.0029109467       12.2853460566       30.1683051021
  C        -0.9440787339       13.6674606049       30.2896330808
  H         7.2418458099       13.4300483967       22.2123164536
  H         6.0230838750       12.3333158435       22.8866261601
  C         5.6527179388       12.8573435462       20.8236154134
  S         1.9301440506        5.4897971077       20.0022217175
  N         2.3774591315        5.9198111135       18.5130391691
  C         3.1700949683        7.9667448560       17.4250324389
  H         3.7763610082       10.0010450554       16.6482373772
  H         0.5621063424        8.6317959679       28.7331842825
  H         0.0403978089        9.7358348059       30.1016762626
  C         1.7650011112       10.3312021039       29.2727510904
  H        -1.6845598721        9.0748553917       27.3131499356
  H        -1.9448274654        9.3861213330       28.9632552909
  C        -3.0573088591       10.8223745362       27.6466459923
  H        -1.2541748448       11.5959567694       30.9295790917
  C        -1.1301693952       14.5026222938       31.5392625060
  H         4.6215205666       12.8448663578       20.8597949176
  H         5.8856676088       11.8196968542       20.5959709121
  C         6.0583675484       13.8357646852       19.6807523759
  C         3.3376668550        7.2528830606       16.1992049660
  H         1.9990938771       10.9601080124       28.4383917098
  H         1.6667390382       10.9660648496       30.1231077758
  C         2.9188360038        9.3450042599       29.5852259667
  H        -2.7010668384       11.5182600819       26.9413423694
  H        -3.3957077978       11.2745693483       28.5063254661
  C        -4.2139455930        9.9928015240       27.1465571162
  C        -1.3654427435       15.8865687116       31.5040093719
  C        -1.2276534095       13.7801333416       32.8269595925
  H         5.4479173066       13.5534360926       18.8767069742
  H         5.7723852633       14.8741536847       19.9632629360
  C         7.4917600544       13.6455621719       19.2211702611
  H         3.3039707007        6.1831859232       16.3222083734
  C         3.6258491536        7.5738541240       14.8812033644
  H         3.0856059510        8.5466094899       28.8516989720
  H         2.7666089872        8.9111452379       30.5400957381
  C         4.2753996875       10.0213216866       29.8030941181
  H        -3.8116978232        9.4222792241       26.3235237943
  H        -4.6030840287        9.3748490640       27.9309927294
  C        -5.2787929198       11.0281014624       26.7324277425
  N        -1.2809832465       16.7308930795       30.3915442277
  C        -1.6821605057       16.5951250764       32.6804364432
  C        -1.5831160345       14.5140670590       33.9858750784
  H        -1.2005296188       12.6735314640       32.8169222510
  H         7.6689453864       13.3523092442       18.1478384921
  H         8.1435802243       14.4724282722       19.4203406565
  H         7.8304318329       12.8175991273       19.7961429674
  S         3.7316805106        9.0888467380       14.1727850285
  C         3.8060165664        6.3986020801       13.9439684294
  H         4.4483520838       10.6936269103       28.9895264046
  H         4.1829509155       10.5259274363       30.7712343143
  C         5.4232794758        9.0244418740       29.7081361825
  H        -4.7267409714       11.9670007554       26.5042780238
  H        -5.8886727315       11.1988181624       27.5733759928
  C        -6.0239473157       10.6192257333       25.4572719366
  S        -1.6153147550       18.2344645564       30.7971841839
  N        -1.9777155754       17.9141723319       32.4011596061
  C        -1.8572935604       16.0148414533       33.9176516730
  H        -1.7324908062       14.0770056656       34.9392613589
  C         3.9605136897        8.2604899155       12.6049520027
  N         3.8484443393        6.9159203216       12.6707535831
  O         3.5864132988        5.1811511528       14.2283635111
  H         6.3975051548        9.5476060136       29.5744329760
  H         5.2593622442        8.3998188374       28.7975552641
  C         5.5494911358        8.1042360793       30.8893856145
  H        -5.4058528371       11.1371738452       24.7123730682
  H        -5.8933216840        9.4908619065       25.3006963164
  C        -7.4921684906       11.0251855802       25.2867623316
  C        -2.2124769679       16.8251006026       35.1239709124
  S         4.1127755974        9.0341140616       11.0643568137
  C         3.6701137697        6.0697340492       11.4978008699
  H         6.5045515783        8.3015578123       31.4733935058
  H         4.6989086271        8.1801509013       31.5785077423
  C         5.7133093537        6.5737459336       30.4770731499
  H        -7.7855188326       10.9390390641       24.2377410288
  H        -7.5753635987       12.0194619388       25.6128911345
  C        -8.4593751771       10.0344934269       26.0306360814
  H        -2.0994848215       17.9061663169       35.0782075445
  C        -2.8629742010       16.4733683667       36.2725249258
  H         4.4107410389        6.1395075643       10.7305078561
  H         3.6851239614        5.0980898151       11.9215502788
  C         2.2568764415        6.2731980252       10.9739841927
  H         6.5076884389        6.5358901657       29.7103770160
  H         4.7466120283        6.3045006676       30.1243515623
  C         6.0312411218        5.5860683850       31.6225845466
  H        -8.5820092025        9.1207839200       25.4243863513
  H        -8.0100253659        9.8920066943       26.9994704476
  C        -9.8652529210       10.5779207752       26.1982742055
  S        -3.4902299507       14.9213616513       36.7562217617
  C        -3.1250341180       17.4868295072       37.3019376959
  H         2.0547227126        5.7193255242       10.0733541871
  H         1.5297242228        6.1484521978       11.7251651904
  H         2.1032221361        7.3127102216       10.6548386452
  H         6.1226768505        4.5390710874       31.3328800223
  H         5.1496219317        5.5821167722       32.2360365867
  H         6.8350066139        6.0327160065       32.1512375192
  H       -10.1937082047       11.0267775036       25.2476336984
  H        -9.9129240637       11.3943448004       26.9143532233
  H       -10.5316504288        9.7591558685       26.4359052174
  C        -3.8628041403       15.7083223107       38.3895410396
  N        -3.6618784972       17.0394255575       38.3761298675
  O        -2.7347988091       18.6417650350       37.1596243551
  S        -4.6959379311       14.9536425560       39.7142523564
  C        -4.0253292500       17.9518515338       39.4820075985
  H        -4.3450585044       18.8566002616       39.0302825384
  H        -4.9219300414       17.6756218429       39.9201227842
  C        -2.8864538054       18.1373047142       40.4940473411
  H        -2.0157260092       18.0903796259       39.8722092527
  H        -2.9515346013       19.1707289654       40.9549766828
  H        -2.9050640558       17.4678557661       41.3305671168
