352
i=
  H         5.5669909105        2.0934733197       13.5116665860
  C         4.7648713317        2.8465048672       13.5109822521
  H         5.1687613160        3.8014962340       13.3460268348
  C         3.6777518159        2.6611603883       12.5277108686
  C         4.1606519081        2.9336293486       14.9845615197
  C         4.0239946235        2.8129846939       11.0357950821
  H         2.9622464180        3.4484398469       12.7428301278
  H         3.1945686373        1.6666065858       12.6772379731
  H         3.7774132401        2.0097017765       15.4567465843
  H         3.4670499182        3.7845635352       15.1296754722
  H         4.9587378230        3.2797997100       15.6682159192
  C         4.8519166624        1.6381669188       10.5470629031
  H         3.1757757029        2.9147846570       10.4025262790
  H         4.5864952092        3.8103602196       10.8582536546
  C         5.2865415623        1.9188904237        9.0728992345
  H         4.2673511925        0.7396079906       10.5450442579
  H         5.6612013505        1.3585597785       11.1994874075
  C         6.6188447891        2.6870937538        8.9058130753
  H         4.4695281502        2.3824284628        8.4641060290
  H         5.3858281247        0.9282146481        8.5597324174
  C         7.8986165204        2.0140623005        9.4009238664
  H         6.7093749823        3.1402730938        7.9390763941
  H         6.3325084663        3.5743630633        9.4815422458
  C         9.1247855210        2.9236421427        9.5053426795
  H         8.1900031597        1.1633539551        8.8208720488
  H         7.6546818332        1.5709487866       10.3820389271
  C         8.7285283892        4.2072857403       10.2351903427
  C         9.4154008092        3.6296455340        8.2197570136
  C        10.3066593562        2.2247073647       10.1024521792
  C         8.8209162629        5.2832329015        9.3650174309
  C         8.2966469855        4.5597621697       11.5054196425
  C         9.3226994414        4.9519491564        8.1320367133
  C         9.8654270654        2.9770626754        7.0603440513
  H        10.0052002064        1.6589484882       10.9589244114
  H        10.5970400683        1.5323904005        9.3020428659
  C        11.5439673915        3.0253283786       10.6088102809
  S         8.3837594698        6.7803726100       10.0771319742
  C         8.0142798137        5.8887864172       11.5760116875
  H         8.0938535305        3.7692117357       12.2468134206
  C         9.7129452340        5.6576862193        7.0558803749
  H         9.8713274807        1.8699638313        7.1493546370
  C        10.2699274456        3.6143848251        5.9384936555
  H        11.3643249587        4.0041341337       10.9821109954
  H        12.2411144311        3.1754436041        9.7057396674
  C        12.2067853703        2.2317980091       11.7116280029
  C         7.7609332677        6.5034072157       12.8462162662
  C        10.2035700620        5.0064798694        5.8777966890
  H         9.5598601116        6.7181835529        7.0877514603
  C        10.7404329757        3.2300044047        4.6975431273
  H        13.1091891508        2.7385660452       11.9652244031
  H        12.4806771944        1.2559938609       11.4145294619
  C        11.3383590536        2.1905428342       13.0051531800
  C         7.9364648290        7.8625216048       13.1345114429
  C         7.3948976471        5.6562853667       14.0198657023
  C        10.6629282816        5.6313882156        4.5894354849
  C        10.8681402608        4.2938056281        3.8783852483
  S        11.0457807405        1.7191068450        3.9334154660
  H        11.0665012698        3.2327645085       13.3260357003
  H        10.4452826751        1.5172609528       12.8973285819
  C        12.1277711081        1.5336234254       14.1680439562
  N         8.4494488352        8.7661447563       12.2380324436
  C         7.6460787899        8.4333449899       14.3402849835
  C         7.2033798580        6.2239414870       15.2634761940
  H         7.0975884443        4.6552980433       13.8611293137
  C        11.9848282606        6.3629952804        4.6358837706
  C         9.5632045336        6.4738551094        3.8603584640
  C        11.2192080924        3.8541614367        2.5700320777
  C        11.3828050214        2.5320309275        2.4628190639
  H        12.7832000344        0.6690238542       13.7748739086
  H        11.4879683517        1.0233105712       14.9122924516
  C        12.8727290278        2.5233595442       15.0883189539
  S         8.3823581132       10.2405196856       12.9018949661
  N         7.7131437514        9.8290889324       14.3424526654
  C         7.3067193168        7.7115743642       15.5009744936
  H         6.7788267147        5.6439179303       16.0552999919
  H        11.8351785557        7.3969259298        4.7474875064
  H        12.5629724127        6.1776679339        3.7426410212
  C        12.8885440596        5.9328459888        5.8216702510
  H         9.0206890398        7.0425274505        4.6347026555
  H        10.0507423180        7.1788378418        3.1444953703
  C         8.4751227159        5.6138221569        3.1158821853
  H        11.2228409051        4.5751640227        1.7869740566
  C        11.6863893791        1.7695412794        1.2151808561
  H        13.9590179510        2.4563827238       14.8701606353
  H        12.5468088489        3.5332812595       14.8497565595
  C        12.4973862380        2.1750776432       16.5065735869
  C         7.0813753453        8.4009783378       16.7219567467
  H        12.5373871126        6.2643660985        6.7242225871
  H        12.9727019022        4.9146153801        5.9058293785
  C        14.2817220483        6.5414770554        5.5637251132
  H         7.9871713416        4.8560649615        3.7575925615
  H         8.8387494776        5.1411316368        2.2204651478
  C         7.4532728242        6.4416136620        2.5148088700
  C        11.8251319898        0.3276949229        1.0819047145
  C        11.5912611714        2.4818733854       -0.0621845864
  H        12.6072614669        1.1399081945       16.7210152144
  H        11.5148392870        2.5730611714       16.8684481837
  C        13.4633726742        2.8531437228       17.4880083770
  H         7.2757644119        9.4941983767       16.6716970194
  C         6.8098789822        8.0668958908       17.9510818013
  H        14.2076233232        7.6841974588        5.3423064041
  H        14.5910678257        6.1200267233        4.6433655216
  C        15.3539551919        6.2253783727        6.6131221690
  H         7.1941900518        7.2539117704        3.1779995215
  H         7.8892777447        6.9033348311        1.6396880448
  C         6.1824091035        5.7236194892        2.2117138941
  N        11.8018795739       -0.6171915163        2.1109497708
  C        12.0743986928       -0.3023953925       -0.1192620548
  C        11.8940087216        1.8332442687       -1.2404201338
  H        11.4218348148        3.5429275037       -0.1727862531
  H        14.5271342779        2.9407929080       17.1786111475
  H        13.3413463931        2.3361105359       18.4270281021
  H        13.0619797204        3.8541178396       17.5591187156
  S         6.3597386144        6.4557162043       18.4318587027
  C         6.8052160751        8.9902789521       19.0868769688
  H        15.6582401557        7.2259534792        6.9462303177
  H        14.8569156758        5.6886141961        7.3835462117
  C        16.3819539139        5.4174040632        5.8668997186
  H         6.1173244545        4.8583464283        2.8699653086
  H         6.3604037537        5.3453362146        1.1911111793
  C         4.9543569495        6.6303999056        2.2132816720
  S        11.9108273948       -2.1113740418        1.4004138548
  N        12.2826061499       -1.6693519980       -0.0741730962
  C        12.1585502671        0.4184926236       -1.3339564118
  H        11.9602972366        2.4095073875       -2.1660586435
  C         6.1816664799        7.0402134129       20.0773550186
  N         6.3556782617        8.3730217677       20.2259259245
  O         7.1722740874       10.1315655519       18.9792719904
  H        15.9900546133        4.4789396061        5.6509617839
  H        16.6664755400        5.7890217150        4.8060112381
  C        17.6894346138        5.1516181446        6.6323439723
  H         4.1301487194        5.9194188885        2.4034020146
  H         4.9435272507        7.2409320296        3.1314753361
  C         4.7909710894        7.5247858565        0.9243650911
  C        12.4533251557       -0.3514233758       -2.4937530340
  S         5.6609841522        6.1698594881       21.5131400376
  C         6.1907390642        9.0440217252       21.5508936485
  H        17.6599418518        4.8707181743        7.6730785416
  H        18.2086571814        4.3266176256        6.1762172165
  C        18.4462364026        6.4385039178        6.6070587853
  H         4.3397472261        6.9981626125        0.1438480692
  H         5.7514602990        7.8809756337        0.5950413746
  C         4.0132074132        8.8241855154        1.0165837885
  H        12.1977522122       -1.3562054386       -2.3721805550
  C        12.9815659552        0.0065261580       -3.6652788096
  H         5.1802890438        8.8508313190       22.0270149988
  H         6.1280430438       10.1108691207       21.2644312398
  C         7.4364782626        8.9050162028       22.3991510849
  H        18.1471096166        7.0060894468        7.4838871082
  H        18.0733830925        7.0263456571        5.7680791496
  C        19.9628096890        6.2388720273        6.6395538441
  H         4.4159507874        9.7349320637        0.4906569794
  H         3.1126716563        8.4912953275        0.4130343437
  C         3.5130452806        9.2704196713        2.4122924645
  S        13.5868312257        1.5067758615       -4.0740702014
  C        13.1784150766       -1.1028320717       -4.6856268782
  H         7.6175023472        9.7158542250       23.0849082315
  H         8.3107531429        8.8088074337       21.7370016698
  H         7.3315912216        8.1026261847       23.1073296611
  H        20.4191204971        6.3801913142        7.6405649161
  H        19.9633842989        5.1570881314        6.3378873769
  H        20.4023030373        6.8437739552        5.8291272174
  H         4.2792393071        9.3658621456        3.1969812320
  H         3.1784410853       10.2840093248        2.4305896337
  H         2.6540279037        8.7092080696        2.7973291037
  C        14.0608921380        0.7255241329       -5.5630356893
  N        13.8429257935       -0.6258409455       -5.7134146088
  O        13.0600181781       -2.2892614524       -4.4690247381
  S        14.5208189314        1.6110049756       -7.0111763160
  C        14.1903479450       -1.4216430946       -6.8524093400
  H        14.4795870498       -2.3888310480       -6.5287331513
  H        15.0758014642       -1.0855821442       -7.3603693300
  C        13.0439337964       -1.4173862695       -7.8895931108
  H        13.3756247384       -1.3859514575       -8.9110459195
  H        12.4716418682       -0.5461489702       -7.7077035536
  H        12.2591854520       -2.1652594343       -7.7566708852
  H        -3.3401233557       14.5802139964       16.7468406681
  C        -3.0677473489       13.6283565549       16.4273135622
  H        -3.9635823217       12.9492014483       16.4977025598
  C        -2.0641189806       13.0255261656       17.3850223192
  C        -2.6961454292       13.6231214562       14.9969083993
  C        -2.6534568227       13.0658787753       18.7442555346
  H        -2.0259791570       11.9754613561       17.1806227212
  H        -1.0270992573       13.3694511952       17.4270080718
  H        -1.7619275249       13.1167067707       14.9522854759
  H        -3.2951838174       12.9705216839       14.4458828083
  H        -2.5745229399       14.6183771102       14.5228048361
  C        -1.6000673291       12.8345198027       19.8937199098
  H        -3.4763391357       12.3965672660       19.0345472005
  H        -3.1703317132       13.9881437546       18.7431082438
  C        -2.2394514725       12.7648484098       21.2615959340
  H        -0.9850877021       11.9991181887       19.7919564439
  H        -0.8100476739       13.6247773284       19.7912509841
  C        -1.1682792160       12.4244486112       22.3676101533
  H        -3.0846578936       12.0688819238       21.3337930968
  H        -2.6942411853       13.7519899740       21.4616570417
  C        -0.0166430090       13.3958826593       22.6141042280
  H        -1.6873629682       12.3706008816       23.3610598136
  H        -0.8933243971       11.3629552818       22.2805074114
  C         1.2993997182       12.8334909220       23.2076126097
  H         0.2391943473       13.7498434268       21.6070426239
  H        -0.3047452277       14.3492351006       23.1093393970
  C         1.7285821749       11.4906698715       22.5380184189
  C         1.0287819427       12.1371054690       24.5081765698
  C         2.4431769643       13.9209883167       23.2467025851
  C         1.6478704062       10.3779215824       23.3601600965
  C         2.2459218495       11.1731200660       21.2776592952
  C         1.0842590616       10.7607901962       24.5837480646
  C         0.6007418043       12.8265774285       25.6706279783
  H         2.6742916413       14.2603174372       22.2246060077
  H         2.0249382281       14.7905169878       23.7496473611
  C         3.7499286871       13.5462243560       23.8977145529
  S         2.0467051286        8.9025915163       22.6036733061
  C         2.4494136268        9.8049781103       21.1760827258
  H         2.5003741268       11.9327684067       20.5200851728
  C         0.7690064835       10.1836821050       25.7787671765
  H         0.5473327298       13.9379678994       25.5693321968
  C         0.2522995404       12.2116534641       26.8182819601
  H         4.2842302755       12.7581877253       23.4538144054
  H         3.6200939512       13.3069513314       24.9672350853
  C         4.6924809205       14.7923960239       24.0655612123
  C         3.0474690638        9.2460605903       19.9088191011
  C         0.3267743715       10.8732300584       26.9488325114
  H         0.8222450308        9.1134470926       25.8530947909
  C        -0.2822243137       12.6123873866       28.0191147982
  H         5.5127382663       14.6358417136       24.7395549888
  H         4.1280724410       15.6169872244       24.5492221063
  C         5.4211032720       15.2321563967       22.8029825534
  C         2.9879387409        7.8822226283       19.6021131514
  C         3.4101707958       10.2322458528       18.8225274274
  C        -0.1241331840       10.1979009408       28.1896466504
  C        -0.4901051424       11.5713032077       28.8608292104
  S        -0.7192295342       14.1260163989       28.7180249032
  H         5.7540217922       16.2813155728       22.9475443073
  H         4.7038480050       15.4733015695       21.9370789908
  C         6.6562844062       14.3625520527       22.6275894707
  N         2.5920496595        6.9027461265       20.3758595370
  C         3.2787495384        7.4055970358       18.3332383265
  C         3.5292209511        9.7419096483       17.4898486408
  H         3.4287361485       11.3398803626       18.9376498342
  C         1.0406155246        9.5135511466       28.9769747245
  C        -1.3423958629        9.1852804709       27.9814577945
  C        -0.8266024801       11.9503606261       30.1625762424
  C        -0.9521259018       13.3218429023       30.2316554823
  H         7.5119249338       14.9645608320       22.8204385792
  H         6.6422813549       13.6079113481       23.3693133237
  C         6.6367502488       13.7071359798       21.2564290410
  S         2.4419533973        5.5091297053       19.5981007817
  N         3.1204284921        6.0441641452       18.1861392459
  C         3.4889819367        8.2761785649       17.2212672245
  H         3.7620252189       10.3973013961       16.6954950245
  H         1.5452759464        8.7052546473       28.4184690201
  H         0.6995093132        9.0760443929       29.9616814415
  C         2.1540589753       10.5139556346       29.2545957562
  H        -0.9534111670        8.4367377795       27.2877916440
  H        -1.4045711344        8.6979572530       28.9699527280
  C        -2.6279148245        9.9292011836       27.6035250238
  H        -0.9955805760       11.2423357019       30.9822530089
  C        -1.3290782753       13.9946554401       31.5415307321
  H         5.7654783544       14.0854436893       20.7674066855
  H         6.4026892039       12.6380127846       21.4973783773
  C         7.9220430000       13.7346468694       20.4327482998
  C         3.7038509306        7.6553368636       15.9617579300
  H         2.5348278331       11.0906059032       28.3499578215
  H         1.8743615320       11.2085944117       29.9951996371
  C         3.2803356971        9.6802283456       29.9036585812
  H        -2.4769478079       10.2812835532       26.5958470176
  H        -2.8378691218       10.8714204409       28.1458222817
  C        -3.8875035841        9.0299948667       27.6271486282
  C        -1.3293049728       15.3480551535       31.8082335700
  C        -1.6901122624       13.1580465637       32.7247572357
  H         8.5089816084       14.6220050410       20.6548281760
  H         8.5701607316       12.8857741402       20.7738307949
  C         7.4268678045       13.4559863703       18.9723055901
  H         3.5830798446        6.6170559361       15.8729506772
  C         3.9043168034        8.2042689625       14.7241512023
  H         3.6990239644        9.1347009113       29.0526693794
  H         2.8878869571        8.9617219537       30.5668119756
  C         4.3967874880       10.3821700667       30.6191145517
  H        -3.6878824412        8.1404886097       26.9785092540
  H        -3.9914966733        8.6160631131       28.6567284450
  C        -5.2204348027        9.6967580696       27.3551513630
  N        -1.0429580764       16.2671295342       30.7455876327
  C        -1.7018377511       15.9135604903       33.0044185777
  C        -1.9178261759       13.7440463626       33.9764261215
  H        -1.5914136097       12.0723638291       32.6583060097
  H         6.5087659451       14.0658357486       18.8673273763
  H         8.1338453717       13.8898604941       18.2751117304
  H         7.2118787830       12.4261644099       18.5907601833
  S         4.4037181078        9.8650886450       14.2728341431
  C         3.9625721346        7.2328944788       13.5993150343
  H         4.5583367161       11.3419320974       30.1488588976
  H         4.0759283194       10.5469030663       31.6586102322
  C         5.8092693322        9.6063771464       30.5626601801
  H        -5.2031384247       10.5768386297       27.9917289369
  H        -6.0296488812        9.0711248639       27.7582999210
  C        -5.3664478544       10.1760019397       25.9366266092
  S        -1.2175830140       17.7515838569       31.4423791448
  N        -1.7016951692       17.2964940027       32.8903597194
  C        -1.9349145094       15.1773852757       34.1742906019
  H        -2.0918463128       13.0599941558       34.7990572573
  C         4.5440464588        9.1619532652       12.6751901373
  N         4.4266925943        7.8248165143       12.4998236677
  O         3.6109304426        6.0168599986       13.7389834433
  H         6.5701057615       10.1435485423       31.1758680668
  H         6.1206682594        9.8619502611       29.5586350446
  C         5.7672735853        8.1578945663       30.8856788407
  H        -4.5296783851       10.8133010047       25.6293414073
  H        -5.2661681795        9.3217001473       25.2591893831
  C        -6.7138568723       10.8980695345       25.7078001176
  C        -2.0847529229       15.9572438404       35.4218946280
  S         5.1784041948       10.0820026193       11.2641617275
  C         4.3833952224        7.1220269234       11.2030636564
  H         5.7158879974        8.0147536574       31.9609911476
  H         4.9262063892        7.6486103988       30.4597262149
  C         6.9874388733        7.4133371542       30.3333433426
  H        -6.7347727786       11.4599095123       24.7999299997
  H        -6.9721907603       11.6711296087       26.4649393413
  C        -7.8558862538        9.9238467935       25.4544013575
  H        -2.0188344412       17.0297258047       35.2423140717
  C        -2.4284038833       15.5674505962       36.6518222338
  H         4.8235397577        7.7114475406       10.3245968256
  H         4.8934849958        6.1759613856       11.1262298881
  C         2.9559448523        6.8320151446       10.8048683610
  H         7.9954775127        7.8814015557       30.6000579512
  H         6.9765599816        7.5048155257       29.2542534364
  C         7.0471116505        5.9278144177       30.8864752847
  H        -8.1530457846       10.0432257709       24.4268649978
  H        -7.5534512612        8.8729309078       25.5632887629
  C        -9.0837179848       10.1318546711       26.2947287274
  S        -2.8990600576       14.0844802004       37.2586598771
  C        -2.5491803018       16.6330019665       37.6671327269
  H         2.3687756915        7.7863766582       10.8532230031
  H         2.9547944983        6.3955085058        9.7722746277
  H         2.3741418528        6.2157702402       11.4631064362
  H         7.7972897813        5.4333849370       30.2380377313
  H         6.0670565633        5.4871392511       30.9013680466
  H         7.3749867874        5.9104981674       31.9504276050
  H        -9.9084470816       10.5518243835       25.7227727593
  H        -8.9612628741       10.7528471567       27.1819516872
  H        -9.5654526757        9.1634850169       26.5091512607
  C        -3.3156115136       14.9002962675       38.8336963530
  N        -3.2109219673       16.2433911923       38.7864071640
  O        -2.1793060508       17.7972928905       37.4469966555
  S        -4.2162687706       14.1977807242       40.1181305257
  C        -3.3954442401       17.1460691531       39.9568370117
  H        -3.4455738011       18.2322976348       39.6208246968
  H        -4.3799556533       16.9079870897       40.3396016982
  C        -2.3647259136       16.8367603518       41.1118865896
  H        -1.5272174464       17.5449794822       41.1015092224
  H        -2.8802371411       17.0213182871       42.0202143773
  H        -1.9904963691       15.7773263866       41.0146971420
