352
i=
  H         4.5534998702        1.3697496077       13.0271165632
  C         3.9693495517        2.3136322080       12.9461921629
  H         4.7485105686        3.0342296132       13.0953294525
  C         3.3662111039        2.5797188149       11.5447572785
  C         2.8652725392        2.3556462192       14.0141431587
  C         4.4831290082        2.8092341803       10.6103445289
  H         2.6552435672        3.4177830568       11.5239159611
  H         2.8815947171        1.6717396295       11.2813035198
  H         2.1980897135        1.4640164677       13.9555078482
  H         2.2750646922        3.2531216429       14.0248620838
  H         3.2338477371        2.3022745314       15.0206236964
  C         5.1867488960        1.5420526826       10.2392104031
  H         4.2374083337        3.4669304358        9.8007925344
  H         5.1538372127        3.4253609632       11.1750876939
  C         5.5976846454        1.5724427206        8.7280029140
  H         4.5974473670        0.7100638354       10.3400860561
  H         5.9868471514        1.3044997575       10.8971469300
  C         6.7372508586        2.5723550123        8.4405514939
  H         4.7179190704        1.9706532635        8.2443840924
  H         5.8848904517        0.5472185235        8.5394883979
  C         8.0842209687        2.0259729925        9.0393049113
  H         6.8572244196        2.8241652905        7.4386437413
  H         6.5983982232        3.5250387976        9.0036075545
  C         9.3069772346        2.9330099005        9.1394680217
  H         8.3606770690        1.0785779040        8.4993639032
  H         7.8956428954        1.6306842540        9.9616259307
  C         8.7958685537        4.1601303914        9.7995302436
  C         9.7384620156        3.6537537176        7.9065833765
  C        10.3576100009        2.2626137794       10.0522159786
  C         9.0543914983        5.3142068669        9.1165785773
  C         8.1840137467        4.4560183659       11.0533286151
  C         9.6187073294        4.9957536554        7.9087369273
  C        10.1821922859        3.0355575666        6.7812687427
  H         9.9427793913        1.8029120909       10.8999357802
  H        10.5862472899        1.3627318601        9.4282338550
  C        11.6614100924        3.0678951720       10.2403467315
  S         8.7590198833        6.7674590394       10.0019316736
  C         8.1454595795        5.8158026141       11.2589012201
  H         7.8406430836        3.6485040216       11.6687911782
  C        10.0195742611        5.6680980479        6.8079631828
  H        10.1092460813        1.9079067213        6.8095857980
  C        10.5887735030        3.6414798456        5.7299693905
  H        11.4691353314        4.0679184747       10.5350750340
  H        12.3271016000        3.1410953506        9.3060554641
  C        12.5727878023        2.2886999512       11.2006325243
  C         7.5565446648        6.4235471461       12.4781140766
  C        10.5623032132        4.9883379337        5.7391790966
  H         9.9008364354        6.7452852423        6.8736284127
  C        10.8967813749        3.3144086765        4.4181131869
  H        13.5842466180        2.4972887315       10.9933050278
  H        12.3257023166        1.2807855668       10.9363238044
  C        12.1491099230        2.4710835248       12.6900119670
  C         7.6258377066        7.8078970537       12.7816294903
  C         7.0558088127        5.5366640133       13.6164757032
  C        11.0184849798        5.7124359180        4.4442112610
  C        11.2064967411        4.4326976373        3.6313390342
  S        11.0713088648        1.8352618477        3.5951148121
  H        11.8412131243        3.5070720824       12.8288464987
  H        11.2481876593        1.8827003535       12.9592402602
  C        13.1704794243        2.2800029294       13.7877393259
  N         7.9584295171        8.8854657359       11.9203266353
  C         7.3577818032        8.2764063934       14.0448549661
  C         6.9430303411        5.9631507204       14.9249560580
  H         6.7924261107        4.5042035693       13.2901741650
  C        12.3810052234        6.4950478170        4.4754899628
  C         9.8599085511        6.5610579032        3.9298006967
  C        11.4635078603        4.0404193670        2.2939052888
  C        11.4619043926        2.6829329190        2.1094451032
  H        13.8969977918        3.0370604547       13.5579514289
  H        13.6531194833        1.2950455534       13.7135485556
  C        12.4821511591        2.5077470029       15.1515406352
  S         7.9458831430       10.2967465088       12.7382456467
  N         7.5972082181        9.6492573586       14.1716128107
  C         7.1105381185        7.3935876739       15.2442178350
  H         6.4409221968        5.2631839166       15.6219024120
  H        12.3154536609        7.2977494903        5.1871205023
  H        12.6731804385        6.9202966377        3.5327949993
  C        13.5077200685        5.5629216493        4.8792490944
  H         9.6202016938        7.3197411195        4.5666045320
  H        10.4698767051        7.0142132927        3.0438140854
  C         8.6024478455        5.8283606936        3.4948061051
  H        11.5599254216        4.8702399637        1.5582865203
  C        11.6537972656        1.9855166104        0.8413263733
  H        11.8881327453        3.3814800042       15.0609694846
  H        11.8215170141        1.6210440163       15.3536248057
  C        13.5553943431        2.6381856442       16.2772550659
  C         6.8561776482        8.0473552037       16.4709855239
  H        13.2000175251        4.8267301911        5.6588488376
  H        13.7610201905        4.9209961092        4.0150419142
  C        14.7796103427        6.3449782189        5.1632241667
  H         8.1476830131        5.5025905235        4.3981223492
  H         8.7523368315        4.9865663376        2.7667585260
  C         7.7583857208        6.8169470310        2.6140095809
  C        11.6804143682        0.5739354118        0.7053260454
  C        12.0110421674        2.7139703244       -0.4499898735
  H        14.2249732573        3.4666924888       15.9323880994
  H        14.1553852201        1.7256884724       16.3137251153
  C        12.9769660991        2.8571251719       17.6472971506
  H         6.8531298578        9.0874524574       16.4083335931
  C         6.4418174125        7.5610453581       17.6972608453
  H        14.6614694407        7.1176935013        5.9393722057
  H        15.1828502623        6.8244526093        4.2145199307
  C        15.9455084779        5.4681443279        5.4217713254
  H         7.3190970364        7.6396522220        3.2645019233
  H         8.3803090596        7.2526422889        1.8623237245
  C         6.4025558990        6.1843924345        2.0124629122
  N        11.4599790179       -0.3412001781        1.6934324427
  C        12.1096459263       -0.0812519761       -0.4439399825
  C        12.3714164631        2.0748358268       -1.6162648936
  H        12.1003869414        3.7790654187       -0.3799045605
  H        13.1165629229        1.9801361641       18.4202609523
  H        11.8853498185        3.0457044270       17.5638896872
  H        13.4468265432        3.7138203182       18.0019194598
  S         6.0559251236        5.9395936875       18.2190056368
  C         6.2171929667        8.6011745622       18.6881008208
  H        15.7434002658        4.4604523210        5.1331696202
  H        16.7720244530        5.8110980891        4.8301477542
  C        16.3369183770        5.5481674542        6.9695325532
  H         5.9614404604        5.6494041927        2.8030929375
  H         6.7574744763        5.3899645823        1.2994557191
  C         5.6887700721        7.0942274755        1.1086331165
  S        11.6004294766       -1.8586907340        1.2071562137
  N        12.0531151577       -1.4527878580       -0.3356971633
  C        12.4899468909        0.5595579083       -1.6726724002
  H        12.5584979091        2.5271619016       -2.5700607276
  C         5.6192849732        6.6758241511       19.7094855926
  N         5.8272761641        8.0408313729       19.8106940245
  O         6.2656013272        9.7990754919       18.5109279908
  H        16.1581815897        6.5427119052        7.2805262703
  H        15.6385661035        4.8362373457        7.5151505189
  C        17.8253369227        5.1445203285        7.1092658769
  H         6.4267384611        7.6857856479        0.5083665351
  H         5.0445561136        6.5826157875        0.3523996998
  C         4.8252508613        8.1803597034        1.8036542854
  C        12.7362313544       -0.1987011807       -2.8292510046
  S         4.9930498297        5.9257523913       21.1182787667
  C         5.7696119237        8.9166920749       20.9480932204
  H        18.0019430638        4.6344096636        8.0042206310
  H        17.9421528625        4.4747057871        6.2813369891
  C        18.7531866878        6.3719862150        6.8555530045
  H         5.4010294863        8.8481067541        2.5015859724
  H         4.2118176707        7.5731639209        2.4875378891
  C         3.9332359807        9.0797903026        0.8603469314
  H        12.4069283970       -1.1773210783       -2.8119501548
  C        13.1443250042        0.2276710035       -4.1022849941
  H         5.1901858417        8.4873915209       21.7570718737
  H         5.2739850371        9.8633513525       20.7191940238
  C         7.1341549858        9.0973391054       21.6651652641
  H        18.8003672491        7.0286660224        7.7448816329
  H        18.5456370869        6.9478715102        6.0032986450
  C        20.1677096333        5.7892374921        6.4351857823
  H         3.7827115576        8.6043194436       -0.1072347425
  H         2.9704508160        9.2524302248        1.3409155967
  C         4.6163768809       10.4150128180        0.4458940946
  S        13.7789861922        1.6953293517       -4.5629557582
  C        13.2769482650       -0.8920784095       -5.0634500123
  H         6.9673530802       10.1941141566       21.9588738611
  H         7.9292223343        9.0337704929       20.9429396253
  H         7.3922762120        8.5274412128       22.5853792390
  H        21.0042399512        6.4871987420        6.2370941755
  H        20.5863912892        5.1618437248        7.2531724995
  H        20.0359232204        5.1245084732        5.5327259753
  H         4.0019786629       11.3099498437        0.7410719925
  H         5.7016634484       10.5373339222        0.8677733789
  H         4.6562089146       10.3523083911       -0.6424729751
  C        14.1522707985        0.9357913171       -6.1621398356
  N        13.8855803956       -0.3887882981       -6.1717608501
  O        12.8156051556       -2.0323817848       -4.9910508020
  S        14.9202338524        1.8237447436       -7.5328530856
  C        14.1023891276       -1.1378683922       -7.3991467304
  H        14.1520423995       -2.1422377093       -7.2568717056
  H        15.0661376392       -0.9993877586       -7.8170176986
  C        13.0598668286       -0.8863714913       -8.4771533747
  H        12.1200478223       -0.6551481680       -7.9169413208
  H        12.7282535113       -1.7003017056       -9.1034456479
  H        13.2368736420       -0.0245825153       -9.0496061093
  H        -2.8759171494       15.7300910547       16.1961170497
  C        -3.1640881623       14.6827819414       16.3485845471
  H        -4.2015952278       14.6824339520       16.5883386107
  C        -2.2822997982       14.1764852408       17.5209179048
  C        -2.8836179773       13.8368045961       15.1129833473
  C        -2.8993781387       14.2476316992       18.9516329363
  H        -2.0360322611       13.1669814308       17.3738479486
  H        -1.2718132039       14.6850996241       17.5957176380
  H        -3.5087539598       14.0830286766       14.2740690425
  H        -1.8687931682       13.9722839360       14.6702015602
  H        -3.0885596592       12.7622962571       15.3892393019
  C        -1.9097235734       13.9139220187       19.9769751961
  H        -3.5982693697       13.4467437373       19.1127579630
  H        -3.5547725265       15.1427755138       19.2602058022
  C        -2.4527711077       13.7255537911       21.4089422845
  H        -1.3039251746       13.0579209495       19.6868746899
  H        -1.2451590536       14.8343437256       20.0189799041
  C        -1.3867405947       12.9876866361       22.2530072179
  H        -3.3039769498       13.0770507035       21.4045320753
  H        -2.7697712771       14.6034649208       21.8404130118
  C        -0.1576133108       13.9058886825       22.6091660559
  H        -1.7068508937       12.5316997199       23.1750785013
  H        -1.0538258901       12.1791906000       21.6625583797
  C         0.9334756967       13.1569553933       23.3386271747
  H         0.3091853928       14.4287099758       21.7031971389
  H        -0.3917680554       14.7684289318       23.2440112245
  C         1.2349303312       11.8062386669       22.7208018246
  C         0.5786399100       12.4997489377       24.6373383261
  C         2.2188989742       14.0540660951       23.2311339765
  C         1.0580111793       10.7193829757       23.5503550655
  C         1.7465731293       11.4788646101       21.4808947383
  C         0.7510166614       11.1374637542       24.8023053377
  C         0.0083548933       13.1501733668       25.7311753403
  H         2.5287025418       14.0999259553       22.2067037109
  H         1.8574317727       14.9792504869       23.6144116354
  C         3.3881343969       13.4075150248       23.9952555173
  S         1.3773357469        9.1717485144       22.7529389303
  C         1.8710108082       10.0867702909       21.2955608301
  H         2.0322192239       12.2860736500       20.8114718452
  C         0.3047547921       10.6237072453       25.9822884062
  H        -0.1682984852       14.2240694896       25.6072078754
  C        -0.3994190012       12.5833131720       26.8596669278
  H         3.4209665217       12.3373234247       23.6881649814
  H         3.2754827275       13.6145475417       25.0846200438
  C         4.7956772024       13.9146197912       23.7486011780
  C         2.2833005984        9.4386542601       20.0593165242
  C        -0.2867194675       11.2531989791       27.0111328644
  H         0.3554675951        9.5886478580       26.1109206605
  C        -0.6636043916       13.0141712411       28.1285279231
  H         5.5812835574       13.1823903100       24.1834679003
  H         4.9461498407       14.7595589553       24.3988861123
  C         5.1321170105       14.1167508714       22.2349039779
  C         2.2449417547        8.0131874258       19.8534124263
  C         2.6650034010       10.2604285637       18.9290533863
  C        -0.6594105125       10.6221903021       28.2495225418
  C        -0.9131820835       11.9536734343       28.9824991732
  S        -0.7769775409       14.5245439039       28.8787265594
  H         6.0100493568       14.8178238518       22.3417533469
  H         4.4285727778       14.5975046716       21.6712042345
  C         5.4860311585       12.7846014008       21.6028419929
  N         1.9306533371        6.9599595949       20.7313266955
  C         2.5416161089        7.4646693428       18.5932050043
  C         3.0426289920        9.7290038766       17.7178097897
  H         2.9530046435       11.2992630120       18.9757471719
  C         0.4551125755        9.9911711036       29.2404038236
  C        -2.0250595808        9.7100400401       28.1568773017
  C        -1.1589354782       12.4056781879       30.2905328297
  C        -1.1679977002       13.7528135018       30.3935174008
  H         6.3147634968       12.2990582302       22.2159320088
  H         4.7612967909       11.9820998465       21.7615607582
  C         5.8003246473       12.9071337687       20.1016144932
  S         2.0461089375        5.5435932936       19.9083530032
  N         2.2778830557        6.1606611353       18.4709942742
  C         3.0216584408        8.2222949984       17.4779768523
  H         3.4074629187       10.4081149814       16.9051992695
  H         0.8170720801        9.0859526935       28.7627966827
  H        -0.0106821857        9.5897945492       30.1760409722
  C         1.7623639186       10.8147809564       29.4422896246
  H        -1.8847406050        8.9302811314       27.4137047474
  H        -2.0940252988        9.1257503677       29.0814907026
  C        -3.2746146162       10.5020495672       27.7184236733
  H        -1.4124291192       11.6889230723       31.0457677999
  C        -1.3622090008       14.5177259651       31.6742085656
  H         5.3490501253       13.8983782274       19.7574292402
  H         5.3284812432       12.1373365927       19.5339343266
  C         7.2269297660       12.6359196832       19.5722239256
  C         3.1880238721        7.6435499815       16.1566492143
  H         2.2675357224       10.9188705529       28.5245614560
  H         1.5683697789       11.7955100891       29.8447822287
  C         2.8907267323       10.0825388096       30.2174773444
  H        -2.9869027707       10.9750660696       26.7795886962
  H        -3.4712208560       11.2792872804       28.5437340834
  C        -4.4262722084        9.6339728803       27.2924348686
  C        -1.5004121720       15.9260868839       31.8015244973
  C        -1.4558185259       13.8500449810       32.9974286072
  H         7.8545259159       13.3921635411       20.0827990655
  H         7.7046168238       11.6800211877       19.7566531312
  C         7.3359354065       12.8819084683       18.1584133653
  H         2.6854903112        6.7692629879       16.0525198263
  C         3.6262014622        8.2233985780       15.0012912197
  H         2.9305493274        9.0331395893       30.0325622009
  H         2.4034632280       10.1167113065       31.2431476350
  C         4.2218940974       10.7429993630       30.5626129177
  H        -4.1105739525        8.8223102806       26.6872911874
  H        -4.8760755178        9.1861386231       28.1755085851
  C        -5.5863538010       10.5281345449       26.7884704666
  N        -1.4398420933       16.7444037561       30.7058509793
  C        -1.7904792070       16.6021837746       32.9540110785
  C        -1.6779507011       14.4542900096       34.1322622075
  H        -1.3798501782       12.7590796813       33.0096203331
  H         6.6118919762       12.3388874866       17.4984376843
  H         7.2572180738       13.9921588678       17.8765166551
  H         8.3024845995       12.5785827653       17.6363410423
  S         3.9655176474        9.8003419363       14.6799869155
  C         3.6292850711        7.2675822482       13.8020765204
  H         4.1967720262       11.8050765683       30.2235888029
  H         4.1913620240       10.9001757593       31.6575415557
  C         5.5381463018       10.0389791479       30.1506983195
  H        -5.1871312221       11.3092424252       26.1812475204
  H        -6.0606502839       11.0563886350       27.5681156517
  C        -6.7057929138        9.6833553115       26.1080200574
  S        -1.4992186569       18.3218338810       31.2530801121
  N        -1.7485484840       17.9882735875       32.8117219967
  C        -2.0093121627       15.9187531766       34.1441124707
  H        -1.7598576739       13.9551496906       35.0380125501
  C         4.1299797520        9.2892670028       12.9977075432
  N         4.0664485788        8.0050644760       12.7413986629
  O         3.4026664194        6.0678721367       13.8614517100
  H         6.3009104360       10.6919773939       30.4608552136
  H         5.7973850202       10.1266433514       29.1208773772
  C         5.7010629462        8.7138700143       30.8030909293
  H        -6.0788958709        8.9736855820       25.6007912131
  H        -7.3996314531        9.1559176764       26.8268138810
  C        -7.4504302553       10.6785949809       25.1759310240
  C        -2.3635294131       16.6716478562       35.3443139720
  S         4.6070908540       10.4396982183       11.6747593023
  C         4.2615930109        7.3831143760       11.3970716419
  H         6.4496403006        8.8585903491       31.5968821471
  H         4.7381989988        8.2884258214       31.0709560288
  C         6.3488280472        7.7020566358       29.8573186106
  H        -6.9415290618       11.0011746120       24.3051828553
  H        -7.9080915302       11.4694985263       25.7154703274
  C        -8.6726412909        9.9767567915       24.6917990277
  H        -2.1279428331       17.7098617794       35.1346020920
  C        -2.9995212955       16.3456050383       36.4952292763
  H         4.7615048879        7.9717665046       10.6497252034
  H         4.9225211201        6.5161309705       11.5662742169
  C         2.9646090368        6.7672005738       10.8450627105
  H         7.2659627849        8.0882298102       29.3079721224
  H         5.5905287392        7.1376470709       29.2666851137
  C         6.8841092436        6.4849899821       30.6701440442
  H        -9.1196610724       10.5728611954       23.8380350559
  H        -8.4354308407        9.0335619471       24.3768061579
  C        -9.7817022365       10.0983844246       25.6937231596
  S        -3.5189105162       14.7677402223       36.9480376299
  C        -3.0805887645       17.3937730551       37.4884461678
  H         2.1120202235        7.4345983822       11.0503560171
  H         3.1070293303        6.4853617790        9.8288206189
  H         2.6983833430        5.8414765483       11.3937108644
  H         7.6136803320        5.9904288877       30.0455481248
  H         6.1587395085        5.7165548122       30.9948013312
  H         7.3405295641        6.7553512129       31.5693393668
  H        -9.5816031346        9.7273942023       26.6417548738
  H       -10.6465605876        9.5305423480       25.4256575950
  H       -10.3515627652       11.0006729887       25.6143024175
  C        -4.0106112200       15.5413549754       38.4667627760
  N        -3.7823522357       16.9110901478       38.5111901501
  O        -2.4413183720       18.4438150091       37.5368704029
  S        -4.2478962365       14.5689655922       39.9026964029
  C        -3.8303581297       17.7613636574       39.6877409847
  H        -4.0451457502       18.8286351413       39.3825972466
  H        -4.7720119877       17.5311308379       40.2866562094
  C        -2.5654615515       17.5396730112       40.6221373428
  H        -2.5163202204       18.2381959045       41.3726209734
  H        -2.7476180081       16.5582147217       41.0281017626
  H        -1.6367909480       17.6589351274       40.0606431634
