352
i=
  H         2.7576899466        1.3038715442       12.8950110587
  C         3.5294577855        2.0299054687       12.6554132515
  H         4.5038456726        1.5452324845       12.3954127323
  C         3.0956997536        2.9392296776       11.5139461238
  C         3.9045175066        2.7812119401       13.9829256910
  C         4.2852234395        3.0398894867       10.5276931229
  H         2.6738554598        3.8339406576       11.9829335252
  H         2.2472301545        2.3845808213       10.9632191151
  H         4.2246658063        2.1670111887       14.8242298248
  H         3.1993591029        3.6045589679       14.2042054855
  H         4.8256967355        3.3647913814       13.7238707010
  C         4.5175917273        1.7380020209        9.6672982026
  H         3.9967215208        3.9399193375       10.0269994854
  H         5.2230220313        3.2467814677       11.0317902834
  C         5.2396805455        1.8943007282        8.3442250034
  H         3.5578881736        1.2872048549        9.4162926234
  H         4.9326918033        0.9109502802       10.1844655429
  C         6.5518646041        2.5678760062        8.4658550322
  H         4.6016254917        2.3835253480        7.5555946175
  H         5.5233064191        0.9292634329        7.8870719750
  C         7.6882573586        1.8609166998        9.1799416152
  H         6.9961920491        2.7371423472        7.4701988433
  H         6.4266213986        3.6346877317        8.8314676659
  C         9.0064109640        2.6095012981        9.3454826468
  H         7.9172992658        1.0665967266        8.4502491318
  H         7.3423853727        1.4168289499       10.1857856133
  C         8.7308032277        3.9458736542       10.0050260250
  C         9.5079611116        3.2293739350        8.0354958421
  C        10.2487657702        1.8948325051       10.0091032282
  C         9.0736729724        4.9896449522        9.1794837949
  C         8.3881889055        4.3842949453       11.3663658514
  C         9.4758908724        4.5739075341        7.9286795585
  C         9.9088310826        2.6392931141        6.7886141001
  H         9.9252175359        1.3384489218       10.8732574871
  H        10.5742178036        1.0922064593        9.3402340290
  C        11.4824684924        2.7769911971       10.3904947602
  S         8.6717794697        6.5305345048        9.9013331077
  C         8.2313431811        5.7314877780       11.3810371951
  H         8.3247848892        3.6187976956       12.1928304371
  C         9.9255302562        5.2112528949        6.8176415409
  H         9.9107008960        1.5520617791        6.7627214454
  C        10.3255803970        3.2693324559        5.6421853395
  H        11.1465853378        3.6988707253       10.8691046228
  H        11.9221697315        3.1551851897        9.4794652051
  C        12.4148092532        2.2222734853       11.5530312682
  C         7.7160752883        6.4274496446       12.5910351593
  C        10.3235111827        4.6129402652        5.6042073648
  H         9.9938565198        6.2579307817        6.9221161280
  C        10.8076808529        2.9039159832        4.3701730969
  H        13.3994673138        2.6628198371       11.5078105177
  H        12.4423927367        1.1411971034       11.5149776018
  C        11.9114287877        2.5597840638       12.9502310194
  C         7.7195973907        7.8211877618       12.9003837875
  C         7.2518435676        5.5272855326       13.6702980034
  C        10.8103368400        5.4075246301        4.4484528483
  C        11.1408636562        4.0748521399        3.6424507617
  S        11.1017803967        1.4222777497        3.6079912147
  H        12.0540285584        3.6530536539       13.0111332843
  H        10.8550640118        2.1604572078       13.1472472287
  C        12.8020182640        1.9054951688       13.9756534640
  N         8.0614398301        8.7381409043       11.9329116416
  C         7.4176218972        8.3905653309       14.1372529600
  C         6.8334719798        6.0859321011       14.9032267188
  H         7.0173838052        4.4938619893       13.5133611241
  C        12.0732956592        6.2754232008        4.6919780103
  C         9.8778759565        6.2639153601        3.5667148526
  C        11.6330751552        3.7013920290        2.3685079003
  C        11.6690440686        2.3707679773        2.2082445292
  H        13.5132751938        2.6060586848       14.3219028108
  H        13.4010820731        1.2075946366       13.4227730343
  C        12.1627247553        1.1927267993       15.1426692188
  S         8.2648129236       10.2030518186       12.6529387141
  N         7.7613230106        9.7380672242       14.1578238555
  C         7.0206242104        7.5552568867       15.1907624949
  H         6.4821407615        5.3789872024       15.6637383797
  H        11.8665360453        7.0650667380        5.4656597136
  H        12.3297059033        6.9834125852        3.9288133728
  C        13.2355650122        5.3826425251        4.9957486364
  H         9.6973740700        7.1664835487        4.1213441428
  H        10.2896791544        6.5666223319        2.6149157000
  C         8.5598665291        5.5827500749        3.2061987395
  H        11.8216458423        4.4657293156        1.5869532002
  C        12.1178945532        1.7234880521        0.8942200812
  H        11.3574618288        0.5744112020       14.7235262482
  H        12.7901462728        0.4972572139       15.6560261196
  C        11.6250082070        2.1583262437       16.2130563465
  C         6.8594041025        8.1490156670       16.4811164913
  H        13.0539400285        4.6824411833        5.8179273461
  H        13.5220657978        4.8085688403        4.1614122258
  C        14.4511589421        6.1144183356        5.4389103742
  H         7.9848590556        5.3773730475        4.1173785294
  H         8.6465179411        4.6455639659        2.6423539615
  C         7.7292947847        6.5597347326        2.4083780396
  C        12.2031690896        0.3218023528        0.6694695697
  C        12.4564447071        2.6077734848       -0.2552755996
  H        10.7808503839        1.7242788930       16.7893414670
  H        11.2331865701        3.0658533105       15.8127265618
  C        12.8322467067        2.4854439542       17.1132312084
  H         7.0846269805        9.2101659349       16.5339714994
  C         6.6641157737        7.6458560106       17.7649839500
  H        14.3304417040        6.3304401716        6.4494673539
  H        14.4978541034        7.1090855198        4.9908733646
  C        15.6560725477        5.3219690883        5.1638772743
  H         7.6471267876        7.4909262264        3.0048273678
  H         8.2512835699        6.8392565943        1.4342966571
  C         6.3091814024        6.1184711251        2.1492590169
  N        11.9381198920       -0.7115275714        1.5835038682
  C        12.3781001909       -0.1745893459       -0.5614112556
  C        12.7636572971        2.0309965739       -1.4837626058
  H        12.4818507758        3.7087547376       -0.1169690500
  H        13.6390790152        2.7120176844       16.5890118724
  H        12.9414473836        1.5668067281       17.6725856578
  H        12.5981645010        3.2898389398       17.8336941857
  S         6.4256296027        6.0267465693       18.3063086073
  C         6.5971407584        8.5759801499       18.9298603413
  H        15.6693535156        4.3606467408        5.7701890649
  H        15.6404336220        4.9845642251        4.1480883914
  C        16.9550602454        6.0444254882        5.2903481741
  H         5.7587768544        6.2630220279        3.0495128334
  H         6.2707580432        5.0988537326        1.8947709547
  C         5.5829843557        6.9168835549        1.0666365521
  S        11.7832623821       -2.1326631818        0.8014264745
  N        12.2186653003       -1.5876370622       -0.6209003685
  C        12.7450242012        0.5506939279       -1.7080533564
  H        12.9634241324        2.7133160396       -2.2756911462
  C         6.1625243957        6.6354366512       19.8647231992
  N         6.2608813117        7.9225229095       20.0398106319
  O         6.5228908591        9.7974150216       18.8130984205
  H        17.6789304508        5.5521715284        4.5903597798
  H        16.8768043071        7.0703801658        4.9404760851
  C        17.4511477801        5.9001222112        6.7714565521
  H         6.0581073767        6.6971238862        0.1059385849
  H         4.5721098732        6.5018412703        1.0992986279
  C         5.5790514258        8.4085818011        1.3832915533
  C        12.9506589395       -0.1074573602       -2.9656844578
  S         5.6522882573        5.6877828773       21.1866767103
  C         6.1497668789        8.5639669433       21.3675553217
  H        16.7310153073        6.4642133537        7.3560742349
  H        17.3037559241        4.8962664002        7.1056870114
  C        18.8131704757        6.6021111027        7.0261234593
  H         6.3750423704        8.9100032060        0.8475481704
  H         5.4954009007        8.7441363535        2.4163032480
  C         4.2153656736        8.9346820059        0.7844651663
  H        12.8537699113       -1.1604373127       -2.9465310802
  C        13.4438855472        0.2518728446       -4.1610329360
  H         5.1955842200        8.2145160016       21.8131928321
  H         6.0211332082        9.5511681877       21.2276556924
  C         7.4760487731        8.6292100069       22.1225544786
  H        19.0644357796        6.3687049801        8.0685436242
  H        18.7090529402        7.7293043712        7.0060743135
  C        19.9547814213        6.4597953246        6.0001997563
  H         4.1148783690        8.5961652306       -0.3080058490
  H         3.4422495597        8.3736628002        1.2982721719
  C         4.1793595452       10.4608865561        0.9916504899
  S        14.0871774500        1.7968021727       -4.6003360438
  C        13.5345939824       -0.7736250032       -5.2691714978
  H         8.0791415491        7.7491176141       21.8680387948
  H         7.3640807750        8.5317857995       23.1953756053
  H         7.9865341284        9.5252042199       21.8219372452
  H        20.0341768319        5.4268992874        5.6814985818
  H        19.8480404217        7.1335453368        5.1807743637
  H        20.9555431428        6.6009438761        6.3807067788
  H         3.6895721807       10.6652905105        1.9549842245
  H         5.1769820649       10.9314421265        1.1820045784
  H         3.5983309190       10.9647012702        0.1846421380
  C        14.5726762834        1.0554241566       -6.1074276447
  N        14.3118264751       -0.2671234306       -6.2040958264
  O        13.0416778714       -1.9248170111       -5.1325078944
  S        15.5410339561        1.7653443314       -7.4028130658
  C        14.4492052394       -1.1523539524       -7.4371122728
  H        14.5479493501       -2.1674494815       -7.0346193659
  H        15.4563722053       -1.0183276664       -7.7668289093
  C        13.4080822743       -0.9576362733       -8.5261705936
  H        12.3912548900       -0.8773348881       -8.0885507737
  H        13.4750926991       -1.9074536631       -9.2503939043
  H        13.7598611928       -0.0549256928       -8.9843733715
  H        -3.6515238449       14.9715941650       16.4261420035
  C        -3.1241838057       14.0354261738       16.4800879730
  H        -3.9249139758       13.2840889347       16.6036879951
  C        -2.0375037190       14.0117239605       17.5497442574
  C        -2.5469562120       13.9377724964       15.0555798523
  C        -2.5156004771       14.1613411934       18.9523800600
  H        -1.5219121916       13.1423332066       17.4651521020
  H        -1.2888108785       14.7386383405       17.3085099457
  H        -1.6700485328       14.5559855042       15.1014588257
  H        -2.2182969615       12.9395651787       14.8290389567
  H        -3.2173573180       14.3228558881       14.2328498023
  C        -1.3713519960       13.9228357512       19.9412320320
  H        -3.2962392340       13.4183118892       19.0328240440
  H        -3.0602368951       15.0321315027       19.1444503189
  C        -2.0179993665       13.7257796362       21.3058424782
  H        -0.7848704063       13.0862872273       19.6829410686
  H        -0.5016303754       14.6212424169       19.7767387652
  C        -1.1079999849       13.1175081460       22.3694302263
  H        -2.7418811834       12.9187012250       21.2082494786
  H        -2.3842439707       14.6359154636       21.7603133584
  C         0.1883656353       13.8888660205       22.6056307792
  H        -1.6237736115       13.0969768678       23.3213292628
  H        -0.9722311102       12.0849636243       22.1498954804
  C         1.2269819578       13.0815097898       23.4258034730
  H         0.6127477692       14.1906672799       21.6766347865
  H        -0.0941599925       14.8315864302       23.1484847759
  C         1.5385313437       11.7645344453       22.6733364424
  C         0.8638712009       12.3851107323       24.6585438800
  C         2.4968609381       13.9249308052       23.5973994542
  C         1.4995009657       10.6757210818       23.5064108680
  C         1.8962680184       11.3585240540       21.3892805764
  C         1.0276262504       11.0175850346       24.7577778983
  C         0.4356476800       13.0644762182       25.8169173490
  H         2.8805283832       14.4252028443       22.6998035607
  H         2.3072553471       14.7711073893       24.2117925098
  C         3.7774617396       13.1801238642       24.1382942733
  S         1.9477555859        9.1826803827       22.7482928183
  C         2.1971717814       10.0196550010       21.3048676252
  H         2.0220129747       12.1379542972       20.6593662232
  C         0.6463023573       10.4281712270       25.9295467554
  H         0.4184936016       14.1759019923       25.8230100907
  C         0.0089703769       12.4430678770       26.9523893347
  H         4.0698859038       12.5223561789       23.3654291147
  H         3.5759292424       12.4098546012       24.9106172590
  C         5.0052388845       14.1551403321       24.3763807868
  C         2.7755342774        9.3988121972       20.0904910470
  C         0.0510932615       11.0756426725       27.0013695516
  H         0.7249677242        9.3893257915       25.9562052429
  C        -0.4040366050       12.8343313215       28.2009531509
  H         5.6491896834       13.6806416419       24.9910076970
  H         4.6904354349       14.9533899496       25.0392251647
  C         5.7266211141       14.6166625396       23.0944164140
  C         2.7465358185        8.0105545013       19.7560881265
  C         3.1544111191       10.2964968695       18.9533659694
  C        -0.2330107034       10.3883433415       28.3198566713
  C        -0.5622610099       11.7035825128       29.0138357205
  S        -0.8346657192       14.3286707931       28.9141949355
  H         6.2863127439       15.5279071631       23.3434024445
  H         4.9519683770       15.0425969215       22.4705111025
  C         6.5666263499       13.4469836202       22.3954087357
  N         2.3784666890        6.9703505353       20.6603382406
  C         3.0268142235        7.5403867577       18.4845310368
  C         3.4851103016        9.7937953150       17.7512977290
  H         3.4423197621       11.3395098294       19.1948536695
  C         1.0231896606        9.6492488322       28.9529857334
  C        -1.5376305039        9.5910197280       28.1805946781
  C        -0.9418929687       12.1223497559       30.2870724897
  C        -1.0793347595       13.5403707084       30.4183941622
  H         7.6163149566       13.6924341786       22.5436920021
  H         6.4501553700       12.6255530919       22.9992918681
  C         6.0775260047       13.2969431056       20.8838846743
  S         2.4851711013        5.5470279578       19.8726625539
  N         3.0447213261        6.0959783333       18.4757212321
  C         3.4428169780        8.3429196809       17.4625504289
  H         3.8885211361       10.4640312010       16.9489727424
  H         1.3036979580        8.7399977458       28.3474159812
  H         0.6010940951        9.1656021172       29.8618914894
  C         2.2263270287       10.5710708183       29.1276468229
  H        -1.3916402733        8.8898973977       27.3487761136
  H        -1.7088466437        8.9726472561       29.1371990984
  C        -2.8061848721       10.4336004980       27.8675459594
  H        -1.1485517208       11.4062032991       31.0472468369
  C        -1.5509012060       14.3125382168       31.6186933971
  H         5.5071132375       14.1716855309       20.5895832282
  H         5.4843177380       12.4503933955       20.6283547945
  C         7.3593761410       13.2712339137       20.0094616389
  C         3.6422262146        7.7728302925       16.1518445473
  H         2.4967647594       10.9012774737       28.1201041008
  H         1.9675871659       11.3940518455       29.6915444111
  C         3.4058045824        9.7705164051       29.7023207965
  H        -2.6777806084       10.9819183664       27.0021199510
  H        -2.9997257056       11.1050615987       28.6857856715
  C        -4.0886545723        9.6350830454       27.4515020964
  C        -1.6197612984       15.7453651347       31.7242458415
  C        -1.7548756552       13.5479700328       32.8814423553
  H         7.9646711471       14.0490086185       20.4010381240
  H         8.0264556842       12.3779254269       20.0873328794
  C         7.0894664361       13.5758535556       18.5131081360
  H         3.3241755241        6.7692111199       16.1974460016
  C         3.9448355952        8.2220656877       14.8519237668
  H         3.7968396721        9.1361173748       28.9289458938
  H         3.1127954662        9.1263621130       30.4755257376
  C         4.4598531466       10.6689609584       30.2003041607
  H        -3.9846839084        9.0891672235       26.5567426904
  H        -4.3807253614        8.9007748178       28.1892818435
  C        -5.3269275776       10.5691156545       27.1534621852
  N        -1.4721325457       16.6832976987       30.6866104383
  C        -1.7584876873       16.3789500610       32.9244383660
  C        -1.9099344924       14.1981482767       34.0799845441
  H        -1.7857186958       12.4987285947       32.9074297184
  H         7.6538339179       12.9737075136       17.8196386400
  H         6.0332198383       13.4383960213       18.2453826788
  H         7.2899781410       14.6320851294       18.4995956154
  S         4.3419800381        9.8280108194       14.3265045916
  C         3.7412287794        7.2667491143       13.7477382454
  H         4.6893007660       11.4034324963       29.4080825973
  H         4.2431234569       11.1709538587       31.1451992862
  C         5.7258370963        9.8255336905       30.2673617888
  H        -4.7899140856       11.2654425010       26.5044194542
  H        -5.6911240409       11.0235709126       28.0650142787
  C        -6.2798208836        9.9887289178       26.1510887381
  S        -1.5332533416       18.1984913326       31.2144488626
  N        -1.7965776981       17.7631245031       32.8097066145
  C        -1.9113094542       15.7415686788       34.1874196440
  H        -1.9894645596       13.5283135817       34.8969123497
  C         4.2625183508        9.2112192582       12.6982549191
  N         4.1804027526        7.8558237342       12.6446365838
  O         3.4800363200        6.0765142959       13.9071765160
  H         6.4617596944       10.5377506340       30.6699161034
  H         6.0298241845        9.4934132880       29.2981260524
  C         5.7853610021        8.6311843237       31.2953869740
  H        -5.6840970518        9.5338349807       25.3419576347
  H        -6.8817093206        9.2241550557       26.6929589873
  C        -7.1291373416       11.0591428690       25.5374750093
  C        -2.0992521482       16.5858707880       35.3198693227
  S         5.0054087575       10.0825235278       11.3793383353
  C         4.3984507041        7.1424822503       11.3410852145
  H         6.5457171831        9.0324366555       31.9323359076
  H         4.8242035568        8.5534868815       31.7660246968
  C         6.2245229731        7.2899812415       30.7938436342
  H        -6.7325519208       11.6420867349       24.7147494030
  H        -7.3098742609       11.8221976559       26.2228593203
  C        -8.5481879683       10.5241653911       25.1409523837
  H        -1.8853423908       17.6661534314       35.1469939242
  C        -2.6509809973       16.2839302436       36.5461112583
  H         5.2329901384        7.5483488912       10.7850822728
  H         4.6993793415        6.0786477034       11.4366227145
  C         3.1403145415        7.2553249073       10.5426887621
  H         7.3083006442        7.4296091947       30.6217326686
  H         5.8720528020        7.1760024351       29.7792063409
  C         6.0430859540        6.0784407563       31.7819900621
  H        -9.0367445777       11.2951993351       24.5418893859
  H        -8.4732604160        9.5721516878       24.6550993991
  C        -9.4394836442       10.3507611287       26.3870005293
  S        -3.3395722613       14.7635141770       36.9397262435
  C        -2.7660237870       17.3867351603       37.5556245346
  H         3.3301849709        7.1611192098        9.4717167026
  H         2.4556465289        6.3852909042       10.7453134185
  H         2.4727963338        8.0606422073       10.9092906697
  H         6.7186363573        6.0929603779       32.6290066561
  H         6.1491219125        5.0997567837       31.2477742965
  H         5.0886584541        6.0424672230       32.2488877534
  H        -9.1480774744        9.6677615092       27.1031668916
  H       -10.4000263248       10.0471577472       26.1343046935
  H        -9.5146294933       11.3467196510       26.8200195601
  C        -3.7886358437       15.5255191022       38.5028614056
  N        -3.5393932113       16.8455462918       38.5799111442
  O        -2.2759439370       18.4637061590       37.4379969668
  S        -4.8278232812       14.7272329194       39.6927941213
  C        -3.6203851348       17.7128835857       39.7346181073
  H        -3.8048968943       18.7374709472       39.4419058573
  H        -4.5517805624       17.4179276557       40.1684105260
  C        -2.3912543679       17.5802792564       40.6358055818
  H        -2.0100909154       16.5593338375       40.5582172598
  H        -1.8101628994       18.4407477454       40.3847708256
  H        -2.6956426029       17.6509394012       41.6724920052
