352
i=
  H         5.1566191075        1.3974738083       12.8855644206
  C         4.4364512428        2.1807053125       13.0094214696
  H         4.9330645232        3.1059575644       13.1810372727
  C         3.5232295006        2.1094482929       11.8217128459
  C         3.5759009672        1.9160561813       14.3162089926
  C         4.1460530077        2.5255771832       10.5328515860
  H         2.6922924503        2.7971942602       11.8995055666
  H         3.0704444138        1.1341255582       11.6586948683
  H         3.1039964431        0.8898486687       14.2568386415
  H         2.8349560998        2.6831742680       14.5318121989
  H         4.1846867018        1.8935232573       15.2379351587
  C         4.8683423516        1.2907990026        9.9186488163
  H         3.5365414468        3.2031972894        9.9737336636
  H         4.9776216785        3.1643777342       10.6988710958
  C         5.4106645689        1.5165011604        8.5345423956
  H         4.2044355781        0.4381755572        9.8832211400
  H         5.6586281498        0.9497262853       10.5491870283
  C         6.7284950131        2.3739471709        8.4869984138
  H         4.5424526532        1.8436926434        7.9930733767
  H         5.6075061864        0.5823610774        8.0956088610
  C         8.0204648884        1.5931861147        8.9359715484
  H         6.9545301745        2.6273815695        7.3567032524
  H         6.6177581690        3.3121188592        9.0130585598
  C         9.2515300047        2.5209415189        9.2167413155
  H         8.3225052959        0.8394674091        8.1877669066
  H         7.7707701880        1.0032936876        9.8521683928
  C         8.9450209081        3.8420413895        9.9826236040
  C         9.6461757143        3.2536256308        7.9501152572
  C        10.3708731941        1.7999362875       10.0046688682
  C         9.2189531068        5.0066629920        9.2484078808
  C         8.3754148908        4.1417252179       11.2458319776
  C         9.5988975792        4.6285979457        7.9516904833
  C        10.1395126440        2.7255906258        6.7781795664
  H         9.9649282155        1.4202354058       10.9282524363
  H        10.6169089050        0.9148760506        9.4262510307
  C        11.5650472331        2.6738341569       10.5140836398
  S         8.8174903801        6.4496201077       10.0448970154
  C         8.2978758792        5.5153124076       11.4083571771
  H         8.1769838789        3.3005509897       11.9173239945
  C         9.8994176079        5.3340952500        6.8334410226
  H        10.2063187441        1.6491716066        6.7957672420
  C        10.4369364917        3.4593291712        5.6206063686
  H        11.1243266221        3.4897862325       11.1048303205
  H        12.1591014474        2.9660497279        9.6702069893
  C        12.4761702233        1.7972226762       11.3700381365
  C         7.8859554026        6.1990426777       12.6990840677
  C        10.3000939500        4.8138618200        5.5850884231
  H         9.7045150641        6.4071176319        6.8256620005
  C        10.8176688269        3.1642337422        4.3560863782
  H        13.4184577090        2.2739257956       11.5593304893
  H        12.6879081098        0.8734577407       10.8010719455
  C        11.8330935577        1.5993901937       12.6950501310
  C         7.7906944486        7.5986570413       12.9969270325
  C         7.4831924780        5.2992991772       13.7870666203
  C        10.6666776780        5.5389046889        4.3343278754
  C        10.8892050803        4.2766572529        3.5708063840
  S        11.2229524251        1.7276119748        3.5706162751
  H        11.0241360741        2.2877153514       12.9368263396
  H        11.2103865048        0.7502421271       12.5897779792
  C        12.8574248271        1.4421292082       13.8946034211
  N         7.9057823318        8.5826003882       12.0183464002
  C         7.4602288660        8.1124215122       14.2618980731
  C         7.1995872473        5.7784165657       15.0405265654
  H         7.3534252104        4.2663256414       13.6244547902
  C        11.9932369109        6.2826531251        4.4488575795
  C         9.5094421595        6.1509761179        3.5806379303
  C        11.2039599241        3.8826605964        2.2783039812
  C        11.4232949776        2.5497798956        2.1277730028
  H        13.0609106984        2.4091326505       14.2117004139
  H        13.8615702115        1.1245796993       13.5016933736
  C        12.4380069831        0.4229486632       14.9532420317
  S         7.9180083410        9.9731992632       12.8585164968
  N         7.4470573157        9.4777658029       14.3121302184
  C         7.2039138598        7.2470084048       15.3642964335
  H         6.7403247103        5.0744101607       15.7116189811
  H        11.8889551737        7.1744065766        5.1094146185
  H        12.2574331817        6.6585208251        3.4539965735
  C        13.0906351665        5.5138873871        5.1628162847
  H         9.2348695951        7.1660837850        3.9908226528
  H         9.9610162665        6.4080639407        2.5844789895
  C         8.2431019378        5.2930638843        3.2964438368
  H        11.5292896674        4.6144307065        1.5808181178
  C        11.8359820979        1.8500398315        0.8589089794
  H        11.4627636176        0.0557220985       14.5794368588
  H        13.1662495964       -0.3754183560       14.9619769860
  C        12.1651122754        1.0504572045       16.2901942901
  C         6.7918342229        7.7847079022       16.6362079058
  H        12.8176921635        5.2357397033        6.1471347173
  H        13.2862597617        4.5769052343        4.5983325546
  C        14.3932585859        6.3427992651        5.1349067696
  H         7.9076756970        5.0050903167        4.2962713448
  H         8.4855616883        4.4773414820        2.6506845433
  C         7.1519947665        6.1702915723        2.6628213552
  C        12.0537207955        0.5073022953        0.7166665289
  C        12.0314058001        2.6616540893       -0.3766754683
  H        11.5960989272        0.4388686319       17.0187373514
  H        11.5955346111        1.9348005540       16.1328042634
  C        13.4803114152        1.5707361153       16.9101797811
  H         6.7885353424        8.8123841067       16.5714492529
  C         6.4654089299        7.2559221445       17.8722475702
  H        14.3683373309        7.1541607888        5.8509422912
  H        14.6467532236        6.7108354321        4.1407797729
  C        15.4571551468        5.3940826158        5.5999859353
  H         7.1239952250        7.0499631017        3.2819253256
  H         7.5354605321        6.5682842155        1.7458208110
  C         5.7666173748        5.5672437348        2.5711702720
  N        11.8890231243       -0.4174541984        1.7363137386
  C        12.3879439455       -0.0598867042       -0.5015116890
  C        12.3893978015        2.1061115399       -1.6189813641
  H        12.0139493854        3.7730675267       -0.3677651556
  H        13.3755716611        1.4802247536       18.0531980632
  H        13.8813223412        2.4994031988       16.5969362084
  H        14.2914475264        0.8464288697       16.7808940053
  S         6.3182897022        5.6193153400       18.2312908751
  C         6.4661544899        8.2558862430       18.9876604963
  H        15.1441319359        4.7959179256        6.4332492513
  H        15.5901822723        4.6762045084        4.8046666816
  C        16.7600152873        6.1322915079        5.9057363186
  H         5.2933134629        5.4564433906        3.5465717972
  H         5.8137951410        4.5846147392        2.1732895322
  C         4.7875053067        6.3359060788        1.6334227181
  S        12.0613282096       -1.9224081397        1.1075143001
  N        12.5073245777       -1.4268055404       -0.3877591306
  C        12.6223978660        0.6695763804       -1.6919589274
  H        12.5211385431        2.6998588029       -2.4691737925
  C         6.1286213824        6.1741806424       19.8956930954
  N         6.2209862247        7.5396684179       20.1108570899
  O         6.5351708976        9.5045833100       18.9070348662
  H        17.3252798339        6.2302862883        5.0064983349
  H        16.6702859667        7.1059952827        6.2991723708
  C        17.5644142791        5.3476415548        6.9033889186
  H         5.2000053865        6.3557456524        0.6193740855
  H         3.8922270569        5.7522721582        1.4653682516
  C         4.2884180521        7.6453461967        2.1195659543
  C        13.0330648893       -0.0409324908       -2.8701128785
  S         5.8168563652        5.2397555661       21.3754940764
  C         6.2513456414        8.2066798228       21.4157051086
  H        16.9880660444        5.2736174408        7.8183734946
  H        17.7157759803        4.3282707993        6.5280134956
  C        18.8970587146        5.9777990543        7.1947238994
  H         4.5735666512        7.6970346292        3.2014402037
  H         3.1814828180        7.7727271910        2.0911384112
  C         4.9734592676        8.8207592881        1.4998897132
  H        12.7439543105       -1.1102107451       -2.8810433847
  C        13.6372626931        0.3148527750       -4.0144966557
  H         5.5994584360        7.6248855969       22.1047136858
  H         5.7351836069        9.2214568447       21.3955215905
  C         7.6709639619        8.5255566428       21.9155258947
  H        19.3330364674        5.4680893461        8.0664363865
  H        18.7417002139        7.0026905968        7.6042671462
  C        19.9380545759        5.9978503179        6.0087471451
  H         5.5850895905        9.3077976357        2.3244092482
  H         5.6367225625        8.6028199560        0.6402007791
  C         4.0892462803        9.8253246272        0.8699595471
  S        14.3243764750        1.8942135382       -4.3724730985
  C        13.8421994143       -0.7133322900       -5.0308645304
  H         8.1502216717        7.5619111799       22.1694227325
  H         7.5902740791        9.2334674459       22.7738494207
  H         8.2865774275        8.9857306855       21.1801480647
  H        19.6052346006        6.5748444040        5.1675118150
  H        21.0038830404        6.1664632242        6.2475642521
  H        19.9910203116        4.9427032308        5.7487218422
  H         3.8020467080        9.5672015837       -0.1505940861
  H         3.2964877536        9.9977189946        1.5025255350
  H         4.6430603289       10.7487437226        0.8407449420
  C        14.5150403030        1.1880955013       -5.9796822200
  N        14.3072011377       -0.1241756805       -6.1007408294
  O        13.4660757760       -1.9151378060       -5.0010089898
  S        15.2189985279        2.1250069611       -7.3344700511
  C        14.2025932952       -0.8369523677       -7.3734774122
  H        14.8251734889       -1.7225151734       -7.3942342396
  H        14.6615797046       -0.2700649274       -8.2172403738
  C        12.7281922205       -1.0225127462       -7.7878862124
  H        12.4561954899       -0.3800995318       -8.6055114951
  H        12.1520683701       -0.7444039299       -6.9383399658
  H        12.4735911415       -2.0704544755       -8.1393400470
  H        -3.1813668432       14.4925436585       16.1766464232
  C        -2.7973859770       13.5401827697       16.2392476396
  H        -3.6488814915       12.8808451976       16.3956067347
  C        -1.9059050719       13.4376988272       17.4905350170
  C        -2.1923475330       13.2411635554       14.8697997398
  C        -2.5262793676       13.9032703150       18.8236334343
  H        -1.6594286540       12.4450689520       17.7256483223
  H        -0.9369964753       13.9186188874       17.3418562803
  H        -2.3348950953       12.1562843307       14.5720236569
  H        -2.6807753000       13.8013352816       14.1588241551
  H        -1.1294416931       13.5980903199       14.8468299885
  C        -1.5110917246       13.8754081895       19.9446733866
  H        -3.4294333141       13.3313769164       18.8945710490
  H        -2.7992399491       14.9354347161       18.7217354600
  C        -2.1628114508       13.5042667028       21.2920111167
  H        -0.7053319714       13.2344691627       19.6492640657
  H        -1.1404957262       14.8569787060       19.9988089588
  C        -1.1889661055       12.9866648728       22.4060458532
  H        -2.7802237033       12.6612503453       21.0191429240
  H        -2.8057975767       14.3273058762       21.6547630523
  C         0.1317370588       13.6894238478       22.5556128621
  H        -1.7359702081       12.9807226857       23.3681362982
  H        -0.9456819959       11.9533957226       22.2298034703
  C         1.3028156476       12.8435244638       23.2342179656
  H         0.5573292385       13.9719873453       21.5705133143
  H        -0.0321091138       14.6065514044       23.1275588266
  C         1.6024680059       11.5375803236       22.5309463776
  C         0.8997308429       12.1424026410       24.4400115627
  C         2.5233076246       13.7690823379       23.4999889042
  C         1.3379651287       10.4191873676       23.3348329196
  C         2.1429886007       11.2198782137       21.2773373326
  C         0.9230654257       10.8305572302       24.5723087473
  C         0.3743813264       12.7933804702       25.5394658664
  H         2.7496579912       14.5380324112       22.8100865833
  H         2.1709028148       14.3433763455       24.3732546870
  C         3.7827410684       13.0523677846       23.9777406072
  S         1.6858036050        8.9792386344       22.4522763149
  C         2.2297818924        9.8793622177       21.0941889591
  H         2.4904672157       12.0781204545       20.6219678165
  C         0.3985972606       10.2322906375       25.7077391148
  H         0.2757378980       13.8624498408       25.5355199776
  C        -0.0029404842       12.1838906067       26.7391414458
  H         4.0404328268       12.0488370764       23.5281332106
  H         3.5626583057       12.8290822291       25.0466278781
  C         5.0495632016       13.9296069868       24.0957507152
  C         2.6787607203        9.2043454875       19.8612111782
  C        -0.0492477907       10.8390418302       26.8614573086
  H         0.4288263059        9.2422869769       25.8430955393
  C        -0.5165758086       12.6120329682       27.9225649806
  H         5.6129810805       13.4618297269       24.8972549702
  H         4.8183232820       14.8895166823       24.5798631939
  C         5.8356092396       14.1959831999       22.8599980490
  C         2.5747139660        7.7963132522       19.6322935356
  C         3.1847366119        9.9935056693       18.7325375302
  C        -0.5984312897       10.2126997227       28.0647138719
  C        -0.9895131772       11.5540242874       28.7067435138
  S        -0.8594203746       14.1832566490       28.6493108746
  H         6.5910324794       15.0422423685       23.0341757788
  H         5.2232708017       14.5269510808       22.0666660672
  C         6.5539602852       12.9914171349       22.3064197242
  N         2.0368062403        6.8398509332       20.4833466715
  C         2.8914739715        7.2395540503       18.3753919468
  C         3.4574262061        9.4496965429       17.5162982729
  H         3.2096209319       11.1074820435       18.8618256959
  C         0.5854629614        9.3547722745       28.7400064128
  C        -1.7857887004        9.2866113326       27.8643384714
  C        -1.4259116928       11.9453031664       29.9743638251
  C        -1.3560380065       13.3224798574       30.1249881237
  H         7.5310015897       13.2575509463       21.9668059534
  H         6.7324916192       12.3505555343       23.2123192520
  C         5.8566843129       12.3309173900       21.2070898242
  S         2.0729202812        5.4084854884       19.6930998625
  N         2.5721193383        5.9323107989       18.3214214237
  C         3.2173454022        7.9612401775       17.3017025817
  H         3.5932094531       10.1436202349       16.6972040596
  H         1.0105681992        8.6866079282       27.9340560183
  H         0.1930397472        8.6722067285       29.5188740214
  C         1.7667602360       10.1579907250       29.1851759126
  H        -1.5600617508        8.4740269708       27.1544174427
  H        -1.9585825745        8.7822472634       28.8146628491
  C        -3.0111279083       10.0667245223       27.3750834479
  H        -1.7756176568       11.2320081269       30.7186988139
  C        -1.6925213752       14.0230043854       31.4019684290
  H         4.8703977747       12.0639774196       21.5222316426
  H         6.3448641959       11.4241301286       21.1801035830
  C         5.7723259694       12.9496920029       19.8017138356
  C         3.4541035818        7.2893187071       16.0586325438
  H         1.9895158046       10.9579436420       28.5187201620
  H         1.6553021919       10.7110890268       30.1356020849
  C         2.9613266301        9.2690913677       29.4978708684
  H        -2.8053278435       10.6791168480       26.4853195949
  H        -3.3928655178       10.8077154841       28.0414140732
  C        -4.2382182075        9.2428833055       27.0921950863
  C        -1.7241262588       15.4370670983       31.5892626039
  C        -2.0553320658       13.3211183444       32.6540092747
  H         5.2683566174       12.1728736539       19.2160193292
  H         5.1096225746       13.8437333202       19.7415169833
  C         7.1693604410       13.1971280582       19.1583413508
  H         3.4632875274        6.1932861783       16.0807420753
  C         3.7403392028        7.7253594120       14.7655267639
  H         3.4474823579        8.7589396439       28.7168308596
  H         2.8062938556        8.5678035355       30.2803450222
  C         4.1011204334       10.1091385938       30.1175976924
  H        -4.0420949006        8.5529984115       26.2671571634
  H        -4.4884402402        8.6611218444       27.9248113629
  C        -5.3627296920       10.1748185906       26.7964049799
  N        -1.4986076595       16.3264903070       30.5706550191
  C        -1.9354322702       16.1017114401       32.7279446648
  C        -2.3191730972       13.9434922773       33.8932828978
  H        -2.0348209213       12.2681303102       32.6369351069
  H         7.0209387572       13.4693587851       18.1299717787
  H         7.7806542777       13.9236528275       19.7311988105
  H         7.7805354992       12.2892140417       19.3068402322
  S         4.1778797324        9.3868828303       14.2581170130
  C         3.8850280963        6.6699421234       13.7685331256
  H         4.4673251179       10.7426519218       29.3056771708
  H         3.9494619759       10.5404392757       31.1116144253
  C         5.3650695559        9.2071837312       30.3231904203
  H        -4.9969975759       10.9332998877       26.1303178119
  H        -5.6848251153       10.8583387903       27.6353082763
  C        -6.5097716080        9.4731977224       26.0208544161
  S        -1.4045799944       17.7981223273       31.1198285558
  N        -1.9489841636       17.4908346781       32.5428853969
  C        -2.3153217285       15.4199106098       33.9692227860
  H        -2.4017063254       13.3261436133       34.7657004900
  C         4.4568233531        8.6260852485       12.6487601260
  N         4.3298281351        7.2385197361       12.6456753342
  O         3.4558842530        5.5265533684       13.8724144189
  H         6.2229786315        9.8190933032       30.4629337887
  H         5.6760906213        8.6721712963       29.3795079577
  C         5.1514391427        8.0991487226       31.4225569179
  H        -6.2229585640        8.7179845275       25.2951779556
  H        -6.8416353433        8.8195051319       26.8332873139
  C        -7.4184594355       10.4670264756       25.4009502582
  C        -2.6383329628       16.1725853003       35.1563307010
  S         5.0098750162        9.2663501258       11.0747574591
  C         4.3421703426        6.4052034230       11.4358006007
  H         5.8590073415        8.1714438605       32.2079490849
  H         4.2182001145        8.2153337220       31.9255851179
  C         5.2275757922        6.7424743412       30.6943837394
  H        -6.9302024375       11.1776257919       24.7259961715
  H        -7.8704169231       11.1481779184       26.1650788466
  C        -8.5461169853        9.8422431684       24.6979757083
  H        -2.2916450756       17.1358545820       35.0429774014
  C        -3.1580873064       15.9208313613       36.4202712563
  H         4.9761409169        6.7309586359       10.6712722533
  H         4.8107245105        5.4460535040       11.7061780186
  C         2.8891838428        6.0972534495       10.9553957339
  H         4.6477673085        6.7357409132       29.7387912816
  H         4.7210007552        5.9612547846       31.2491256231
  C         6.6054079343        6.1091178077       30.4202564723
  H        -8.7407419109       10.5774655885       23.8810941573
  H        -8.1899524915        8.8101463446       24.3668111341
  C        -9.7614698540        9.8056869607       25.5932322708
  S        -3.7175963721       14.3986197433       37.1330684314
  C        -3.1648766617       17.1080936151       37.3837856487
  H         2.2039892761        6.9264180819       11.2633717431
  H         2.7867049418        5.9887099183        9.8922049508
  H         2.4026155743        5.2304000624       11.4488262899
  H         7.2185597878        6.7828964225       29.7634992580
  H         6.3348827542        5.3405895050       29.7323810116
  H         7.0166013235        5.6946898450       31.2553549778
  H       -10.1766235865       10.7723672195       25.7258677540
  H        -9.5514775253        9.4267835282       26.5564606136
  H       -10.5766694141        9.1826364653       25.2496355591
  C        -3.9223829293       15.3573128424       38.6420441825
  N        -3.5802255999       16.6684192459       38.5653832791
  O        -2.7559621851       18.2119829489       37.0131742118
  S        -4.1201199781       14.6783487808       40.2180731200
  C        -3.5427717483       17.4553186958       39.7287949577
  H        -3.7555191318       18.5001625830       39.3911384519
  H        -4.3043399370       17.2071053631       40.5307733235
  C        -2.1612190434       17.4877422120       40.4194776128
  H        -1.8061203485       16.4532788232       40.6623371654
  H        -1.5218858365       18.0332112219       39.7550896323
  H        -2.1370418056       18.0723595968       41.3320528616
