352
i=
  H         4.2625453984        1.2772183500       12.2591882247
  C         3.6910100721        2.2105922277       12.2618058541
  H         4.4378447798        2.9656503442       11.9967391106
  C         2.7048629019        2.1730882135       11.0597909292
  C         3.1342094731        2.2941666302       13.6841533198
  C         3.3572210572        2.3274045622        9.6539501890
  H         1.9144678039        2.9547457971       11.1841475206
  H         2.2302139053        1.1364200991       11.0200123576
  H         2.5351057333        1.4175403708       13.8862841879
  H         2.5746660248        3.2369849278       13.6523665926
  H         3.8151349239        2.3792856093       14.5566952464
  C         4.4467178884        1.3132606554        9.3912859885
  H         2.7315014011        2.5315021006        8.8592103891
  H         3.8973093025        3.2633864023        9.7314741138
  C         5.2568780683        1.5977508791        8.1339579153
  H         3.9895614953        0.3186362660        9.2710884541
  H         4.9705889003        1.1768660864       10.2887930443
  C         6.5029668506        2.4942412008        8.4895727435
  H         4.5248097161        2.1093012098        7.4459301460
  H         5.6723290836        0.6562193137        7.6800712991
  C         7.7159127462        1.6636110881        8.9565294256
  H         6.7546051382        3.2094342196        7.7041303843
  H         6.1234270196        3.1559184243        9.3605957074
  C         9.0068098626        2.4693751571        9.1090688686
  H         7.9930522338        0.8391845248        8.1898095473
  H         7.5644628656        1.2106083726        9.9379241178
  C         8.6150916085        3.7306802664        9.9009113421
  C         9.3873262676        3.1889063186        7.9142217926
  C        10.2120062307        1.7519777331        9.8970232822
  C         8.7878464032        4.8528696295        9.0922066079
  C         8.1384498341        4.0807712158       11.1945760841
  C         9.2567218430        4.5335141431        7.8490821540
  C         9.9684794098        2.5968626056        6.7716458911
  H         9.8788376953        1.3810748621       10.8495948502
  H        10.6344247431        0.9171248671        9.2689472434
  C        11.3715601501        2.7213302296       10.1492871683
  S         8.3989337261        6.3297086691        9.7657540128
  C         8.0269480735        5.4835246976       11.2698717257
  H         7.9714496293        3.2680195929       11.8659238867
  C         9.6164138045        5.2109128913        6.6784564781
  H        10.0546462058        1.5668454597        6.9400764598
  C        10.2361310917        3.2809773797        5.6032637027
  H        11.1770452011        3.5502595541       10.7856430578
  H        11.6985949439        3.1049513574        9.1996692722
  C        12.5389110741        2.1080266071       10.9622071524
  C         7.6868584190        6.1811798665       12.4844351771
  C        10.1424562447        4.6266690940        5.5504852957
  H         9.3810059751        6.2835922743        6.6150958114
  C        10.6597851838        2.9021405718        4.3240865155
  H        13.4768476754        2.7371726201       10.9543480409
  H        12.8284603427        1.2496937437       10.3479708315
  C        12.2088382942        1.7042369235       12.3864310332
  C         7.5821123389        7.5834286340       12.6526982429
  C         7.2498725755        5.3743209835       13.5997960889
  C        10.5545235081        5.3223880676        4.2972088216
  C        10.8358460312        3.9871444233        3.4717725288
  S        11.0401815126        1.4343936860        3.6403771912
  H        11.4943260454        2.4345219941       12.9023718923
  H        11.7949105742        0.7297525164       12.4641810688
  C        13.5272620171        1.7606103902       13.2643976968
  N         7.8277455063        8.5363744535       11.6641903417
  C         7.3601845887        8.1314809515       13.9334389668
  C         6.9139175878        5.9508426436       14.8217185220
  H         7.0288467012        4.3027783563       13.5113336462
  C        11.9107989698        6.0556406418        4.4601153877
  C         9.4165220117        6.1904455899        3.6901301508
  C        11.1898724183        3.5663424734        2.1708432528
  C        11.3619140459        2.2336393178        2.1374398280
  H        13.7810568578        2.8325641130       13.3931128079
  H        14.4769370183        1.4280687701       12.7997522767
  C        13.3160220132        1.1074476265       14.6366060358
  S         7.7668437605        9.9745928146       12.3826981561
  N         7.3491808458        9.5308390573       13.9114198663
  C         7.1642088797        7.3458790530       15.0586385093
  H         6.5029488206        5.3184323811       15.5729939693
  H        11.7162324015        6.9092003018        5.0877309409
  H        12.1022788350        6.3665645691        3.4123624977
  C        13.0440686870        5.1751051152        4.9894791773
  H         9.3615897141        7.0962393054        4.3156360985
  H         9.7608623489        6.6766940804        2.7537810496
  C         7.9949758005        5.5584982624        3.5638420844
  H        11.5019585190        4.1988558753        1.4186195062
  C        11.7591162824        1.4915593324        0.8954592332
  H        12.8673547315        0.0654922008       14.5339492715
  H        14.2933343592        1.1441392885       14.9798471551
  C        12.4448997435        1.9527642094       15.6228323980
  C         6.9637061381        8.0482743162       16.2983992605
  H        12.8817603557        4.7438680410        5.9775599478
  H        13.3332364869        4.4299056595        4.2592275074
  C        14.2696017670        6.0738989728        5.2468253939
  H         7.5471282611        5.5684669794        4.5293823851
  H         8.0026437428        4.5003386620        3.4264391225
  C         6.9696087316        6.1758502111        2.5692789840
  C        11.9289420659        0.0758016143        0.7674453114
  C        11.9403200397        2.1951377392       -0.3741998731
  H        11.3910550592        1.6104740776       15.7737776352
  H        12.2320981909        2.9144201453       15.1186718106
  C        13.0193232918        2.1890446790       17.0236549749
  H         7.1229381174        9.1170354643       16.2353891742
  C         6.6690354360        7.6282084811       17.5821562293
  H        14.0062076694        6.7204788472        6.0415039203
  H        14.5717946970        6.7046068149        4.3635378224
  C        15.5036179758        5.2954543039        5.5581550661
  H         6.8612516827        7.2217280655        2.7792850927
  H         7.4850301019        6.1473629596        1.5489124435
  C         5.6356137083        5.4700564431        2.5571457522
  N        11.7849626152       -0.8524480451        1.7918587134
  C        12.2869010224       -0.5136493630       -0.4364937685
  C        12.3334926588        1.6243208718       -1.5796186035
  H        11.7310098691        3.2905207303       -0.3923193078
  H        13.6408585349        3.0953994681       17.0359888866
  H        13.5738837027        1.3430198122       17.3197491438
  H        12.2328622931        2.4244221335       17.6990571869
  S         6.4763991750        6.0643052987       18.1380678659
  C         6.4931116648        8.6664143743       18.6261205249
  H        15.2171931408        4.2851118457        5.9423576847
  H        16.0038290356        5.1352482732        4.5797713438
  C        16.4452139159        6.2110226390        6.3769718655
  H         5.3356557788        5.5249463949        3.6614659320
  H         5.7346802158        4.4807882421        2.1941697255
  C         4.4489336187        6.1682297850        1.8808360116
  S        11.6647192304       -2.3343489519        0.9842510642
  N        12.2911074967       -1.9552685911       -0.4220714325
  C        12.5145251164        0.1700148026       -1.6523993572
  H        12.4172205767        2.2442441819       -2.4409096314
  C         6.0779733040        6.7632382111       19.7597405472
  N         6.1315004001        8.0571197685       19.8324777702
  O         6.6266520353        9.8569532313       18.4336246372
  H        16.9931527063        6.9817420516        5.7901826485
  H        15.9173725356        6.8312608155        7.1332225948
  C        17.4767731879        5.2230996911        6.9790256184
  H         4.5161433969        6.2086964454        0.8105163338
  H         3.5691208890        5.5506747993        2.0814166230
  C         4.1551903000        7.4968982468        2.4936003238
  C        12.6775341460       -0.5794086744       -2.8959803028
  S         5.5632063511        5.8373057958       21.1638375037
  C         5.8470574252        8.8175971255       21.0982938757
  H        17.1378649982        4.9629380913        8.0077522139
  H        17.5147605752        4.3120051984        6.3694740765
  C        18.8555555063        5.6469208596        7.1223097774
  H         4.9132351516        7.8155337369        3.1600607578
  H         3.2975097304        7.3894424094        3.1389304918
  C         4.0064251803        8.5813651421        1.4241114852
  H        12.3573753277       -1.6238058297       -2.8299907943
  C        13.3373992239       -0.3199283659       -4.0672423501
  H         5.3106896239        8.3880878358       21.9205087162
  H         5.1296913610        9.5707556099       20.8348674348
  C         7.2016422883        9.2279451438       21.8061776717
  H        19.3800725477        4.9772977681        7.7354924512
  H        18.8000614267        6.5719472658        7.6911233034
  C        19.7336262682        5.7628062099        5.8695642270
  H         4.9257407726        8.6213311433        0.7699080007
  H         3.1369753825        8.3778904695        0.8283834500
  C         3.8056097326        9.8778055118        2.1475490209
  S        13.9680360268        1.2468447060       -4.4998321178
  C        13.4895774781       -1.3846896921       -5.0715980436
  H         7.4319154450        8.3777611456       22.5053082123
  H         7.0555519144       10.1499863477       22.3754473987
  H         7.9761365707        9.3256804291       21.0923760738
  H        20.7375280590        5.4368038568        6.1222839102
  H        19.2397818627        5.0900306044        5.0586559711
  H        19.6829904896        6.7149285499        5.5045211346
  H         3.1533838188        9.7031254356        3.0321168248
  H         4.7699737069       10.2317389364        2.5039032995
  H         3.5120279225       10.5869953397        1.4021606110
  C        14.4267464414        0.4731998332       -5.9793882396
  N        14.1057955597       -0.8343543998       -6.1265745203
  O        12.8925530786       -2.4477873350       -4.9414933983
  S        14.9907847505        1.2781182027       -7.4601538161
  C        14.2621609033       -1.6091741165       -7.3117865468
  H        14.2353746045       -2.6184564849       -7.0342712871
  H        15.1448237134       -1.3382711681       -7.8932441594
  C        12.9976790296       -1.3762148185       -8.1513341305
  H        13.1709157538       -0.4777887871       -8.7743086831
  H        12.1224029477       -1.2692188582       -7.5249957776
  H        12.7859738673       -2.1487088661       -8.8054103540
  H        -3.8375240273       14.4621770871       16.1664578895
  C        -3.4232161841       13.4665618724       16.3018015366
  H        -4.2538043310       12.7673178814       16.5417132287
  C        -2.3382457752       13.4284721215       17.4384917889
  C        -2.8813637080       12.9085355867       15.0126453272
  C        -2.9446339482       13.2745626764       18.8476524763
  H        -1.5742944868       12.6506779963       17.4148279534
  H        -1.6934788519       14.3678168582       17.4572251828
  H        -2.1588504905       12.0791355750       15.1770503814
  H        -3.6455520138       12.4975765036       14.4719291645
  H        -2.4409075438       13.6998664818       14.3841416838
  C        -1.8289069275       13.0878172852       19.8796523582
  H        -3.4465095631       12.2887502767       18.8760543546
  H        -3.6567092245       14.0784058580       19.2027040588
  C        -2.3337464897       13.1687407702       21.3155207322
  H        -1.2631977500       12.2228563890       19.6983221540
  H        -1.1722099988       13.9287787658       19.7545554079
  C        -1.3225011934       12.6893288352       22.3061464614
  H        -3.1929761077       12.5054388346       21.5030147928
  H        -2.6940298527       14.2208548852       21.4058378722
  C        -0.0859418718       13.5453952353       22.4396937386
  H        -1.8145619785       12.5641493608       23.2667159759
  H        -1.0854493633       11.7152985679       22.0846440427
  C         1.0463041955       12.8607823136       23.1962803380
  H         0.2511703482       13.8578022992       21.4883957108
  H        -0.1959262006       14.5005453867       22.9329044728
  C         1.3900928109       11.5643300313       22.5290005086
  C         0.6025251666       12.2115764678       24.4413689334
  C         2.2643837506       13.8152405008       23.3507374429
  C         1.1977109327       10.4755428679       23.3476381855
  C         1.8413002632       11.1445735419       21.2956804831
  C         0.6496939898       10.8347305272       24.5691852049
  C         0.2183764329       12.8518968417       25.6248432481
  H         2.4603363723       14.2241759295       22.4074911906
  H         2.0219826606       14.5827058464       24.1141254503
  C         3.5292794000       13.0997535524       23.6606103111
  S         1.5164596323        8.9433893332       22.6733387269
  C         1.9091541896        9.7988720524       21.2352344418
  H         1.8881258758       11.8988241831       20.5420496520
  C         0.1895026213       10.2733997821       25.6976317054
  H         0.2654668838       13.9530149268       25.5005107592
  C        -0.1440541556       12.2199915272       26.7891815134
  H         3.8523232437       12.3605084008       22.9295876288
  H         3.3148019043       12.5273963798       24.5495239769
  C         4.6948009825       13.9592289647       23.9347912585
  C         2.4156980650        9.0436587748       20.0828459423
  C        -0.2069366307       10.8883671777       26.8828250371
  H         0.3862319862        9.2675812021       25.8485740882
  C        -0.5734716389       12.6655396041       28.0304509784
  H         5.4336642115       13.4219606458       24.5222700144
  H         4.4851148377       14.6974036271       24.6750938359
  C         5.2106753144       14.5849793802       22.6035277714
  C         2.3019125883        7.6779221090       19.8113639174
  C         2.8216650547        9.9469735130       18.9388610009
  C        -0.6341243222       10.2404843491       28.1897928005
  C        -0.7843852333       11.6121798030       28.8952356403
  S        -0.7532710302       14.1794895144       28.7527287523
  H         5.8040008292       15.3933597197       22.9248380243
  H         4.4522750822       14.9461254377       22.0239952360
  C         6.1476863451       13.6399000220       21.8124602291
  N         1.8425873444        6.6981177101       20.7313411563
  C         2.7292349144        7.1567061113       18.6203062179
  C         3.2466615250        9.3564423604       17.7136181459
  H         2.8842662217       11.0179187793       19.0657265441
  C         0.5972918763        9.5027722880       28.8242166649
  C        -1.9466070215        9.4504169766       28.1313604775
  C        -1.2852618269       12.0631177895       30.1343695432
  C        -1.1807337804       13.3956152872       30.2659465947
  H         6.9955566759       14.2073787365       21.4051443011
  H         6.5313637156       12.9527377851       22.5666419703
  C         5.4990352754       12.8426990126       20.6660978744
  S         1.9617300816        5.2060936227       19.9849070730
  N         2.6227983697        5.7868651091       18.5751449302
  C         3.1545737834        7.8982726518       17.4897183023
  H         3.5406146188       10.0191143191       16.8537311518
  H         0.9804692507        8.8393465141       28.0611915066
  H         0.3013878262        8.8795399055       29.6619044765
  C         1.7355015919       10.3679597906       29.3428468551
  H        -1.8060897781        8.6159007750       27.6561789300
  H        -2.2303720831        9.1537872756       29.1306007211
  C        -3.0747183528       10.3687929120       27.5743910597
  H        -1.5002255106       11.2763841729       30.8647384412
  C        -1.3916922523       14.1850211637       31.5290310560
  H         4.4388863238       12.9939233479       20.6492633700
  H         5.6724328450       11.7832767935       20.8323364658
  C         6.1655757309       13.2403680751       19.3017472338
  C         3.3988899610        7.2216725177       16.2155075457
  H         2.2100937115       10.9072548874       28.5131550686
  H         1.4294691127       11.1326705051       30.0439819380
  C         2.8886750710        9.4616850568       29.7799706899
  H        -2.7723492330       10.9504698357       26.6956378099
  H        -3.5097023438       11.0010907353       28.2563152424
  C        -4.2318168477        9.5016197751       27.1359082584
  C        -1.2663343211       15.5834406866       31.6884714350
  C        -1.6826712928       13.4605006280       32.8045002087
  H         5.4654506040       12.9346865969       18.5052811240
  H         6.3866408228       14.3081092263       19.1946780447
  C         7.5269179304       12.6190671497       19.1388982434
  H         3.1373007917        6.1870377982       16.2785132772
  C         3.6632559217        7.6533984801       14.9755131896
  H         3.4128431627        8.9590099713       28.9511932367
  H         2.4902424849        8.6437117430       30.4727695277
  C         4.0842619449       10.2781570686       30.4040216845
  H        -3.9696869355        8.7381921550       26.4032354402
  H        -4.5958900969        8.7931784426       27.9020704457
  C        -5.3900596646       10.3204496694       26.8215495356
  N        -1.0564718832       16.4431176195       30.5999396531
  C        -1.6514627206       16.2464110291       32.8098633857
  C        -1.8384980780       14.1847944121       33.9967856257
  H        -1.7089220636       12.3878180681       32.8700783092
  H         7.7457040565       12.2892964463       18.1187532896
  H         8.3317425420       13.3085978838       19.4397357988
  H         7.5520365036       11.6335240356       19.6328140673
  S         3.8949440002        9.3081689104       14.3791372198
  C         3.8327816978        6.6014059021       13.9213457295
  H         4.1838156640       11.3156255927       30.0296967465
  H         3.7023065092       10.4132789204       31.4149927973
  C         5.4445637111        9.6085215658       30.5339131293
  H        -5.1969350827       11.2929918230       26.4789039337
  H        -5.9056539264       10.5127908883       27.7256679448
  C        -6.2435526554        9.7121839523       25.6938465562
  S        -1.2226550019       17.9583159916       31.1139773324
  N        -1.6767207242       17.5845126778       32.6424064343
  C        -1.8957135498       15.6459901595       34.0255673689
  H        -2.0365263547       13.5890763187       34.8967026439
  C         4.1825737109        8.5688870781       12.7678259277
  N         4.0872951258        7.2348272650       12.7217074802
  O         3.7276591315        5.3842981919       14.1889600563
  H         5.9065577193       10.4232562539       31.0158722076
  H         6.0251964980        9.5180098286       29.5824545575
  C         5.4538031335        8.2346624697       31.2722684617
  H        -5.5981875835        9.5315322027       24.7803795852
  H        -6.4846462928        8.7450718610       26.0651297241
  C        -7.3156559418       10.6020603382       25.1757664717
  C        -2.2604463819       16.4386119794       35.1595708459
  S         4.4692783646        9.4365362763       11.2172656039
  C         4.0756695245        6.4395775015       11.5437632443
  H         6.1797219566        8.2092067965       32.0389369074
  H         4.5091889172        8.0048893395       31.7932246473
  C         5.5717348962        7.0949197562       30.3542864860
  H        -6.9356131427       11.2307899847       24.3562186281
  H        -7.6602002249       11.3605963137       25.8851240008
  C        -8.5604838805        9.7549929136       24.7363213437
  H        -1.8717778598       17.4425656938       35.0389118037
  C        -2.8330764548       16.1034308333       36.3940584575
  H         5.0865557838        6.4952113184       11.0208145659
  H         4.0060561201        5.4173262791       11.8933121947
  C         2.8572324587        6.5899448361       10.6617778675
  H         4.8631725808        6.9650616100       29.5679219504
  H         5.4237245860        6.2739462783       31.0681377591
  C         6.8958167692        7.0829063753       29.7287769616
  H        -9.1023025297       10.2943014712       23.9569275175
  H        -8.1876156487        8.8424305093       24.2799445970
  C        -9.6519343067        9.4136038010       25.8133831179
  S        -3.4007120599       14.5707874192       36.9281287707
  C        -2.8649791824       17.2159738053       37.3832539167
  H         2.9064565899        5.7830906103        9.8892359574
  H         1.9655277211        6.5211602372       11.2884860836
  H         2.8640596462        7.4685845467        9.9637869862
  H         6.8594172481        7.7361697519       28.7836164331
  H         7.2048994905        6.1049773088       29.4392039575
  H         7.7035991037        7.4241670170       30.3451459663
  H        -9.2713842287        8.7992631038       26.6476296070
  H       -10.4064278192        8.8491702779       25.3264494956
  H       -10.2463807356       10.2799718840       26.0972469891
  C        -3.7784398545       15.4451426085       38.4154377278
  N        -3.4374930685       16.7096608090       38.4873025478
  O        -2.3152017118       18.3022581495       37.2641079017
  S        -4.5247528935       14.7895462283       39.8909654084
  C        -3.4925084558       17.4107496821       39.7389047445
  H        -3.5226144410       18.5182364843       39.5822902208
  H        -4.4310456324       17.2624074896       40.2763140705
  C        -2.1803541647       17.0892271376       40.5428592721
  H        -2.0028515566       16.0374577281       40.4632190239
  H        -1.4400158748       17.8561854124       40.2984090607
  H        -2.4668372201       17.3167587582       41.5474554611
