352
i=
  H         3.7989632436        1.0136281278       12.8842542006
  C         3.7104037902        2.1216222033       12.8572691856
  H         4.7940990420        2.3887271018       12.7177271115
  C         2.8580717200        2.5317523328       11.6560374891
  C         3.1717944882        2.5359793821       14.2487166720
  C         3.7259846630        2.5852836407       10.3516334609
  H         2.5167683347        3.5218370529       11.8894366498
  H         1.9650000870        1.9466752425       11.4371487877
  H         2.2272318395        3.0506504074       14.1145757931
  H         3.7220531553        3.3717647567       14.5950872537
  H         3.2589359659        1.6404420208       14.8451045640
  C         4.3944962607        1.2427566693        9.8432421241
  H         3.1071774307        2.9920777138        9.5816531098
  H         4.5327102985        3.2286045790       10.5437926129
  C         5.1286700087        1.4881878351        8.5154147735
  H         3.5685857429        0.5257925616        9.6932715115
  H         5.0226044652        0.7900927968       10.6071476920
  C         6.3970476787        2.3768044930        8.6176296856
  H         4.4012113184        1.6312434256        7.6849817269
  H         5.5018945307        0.4883390440        8.2731841226
  C         7.5651261172        1.5732706753        9.1568515040
  H         6.5622176433        2.7400065467        7.5983257673
  H         6.1174260154        3.1753376141        9.2775083512
  C         8.7878538543        2.5369422996        9.4068087145
  H         7.8619769780        0.6915668143        8.5524181527
  H         7.1770255773        1.1392184371       10.0603483037
  C         8.4020331167        3.8708394625       10.1040434056
  C         9.2322482970        3.2829293063        8.1274274401
  C         9.8701440317        1.9558850878       10.3249971076
  C         8.7202211952        4.9630491594        9.3234467543
  C         7.9159421843        4.2841309743       11.3920909571
  C         9.2663039198        4.5852306050        8.1117786553
  C         9.8142865124        2.6353985374        7.0280142523
  H         9.4600946995        1.6631440081       11.3360219081
  H        10.1526592648        1.0067905586        9.9078770378
  C        11.0942538048        2.7958968533       10.3609003344
  S         8.3329332926        6.5066300132       10.0205226552
  C         7.9131636804        5.6348406309       11.4977806829
  H         7.5913355333        3.5299379973       12.0820595493
  C         9.7181964550        5.2249699494        6.9743134232
  H        10.0578284446        1.6264995469        7.1204932457
  C        10.1955571630        3.2464337992        5.8532419469
  H        11.0903660484        3.8392994398       10.6581922485
  H        11.4003336436        2.8367802213        9.3656148804
  C        12.2167813262        2.1547300879       11.1899057474
  C         7.5189205710        6.3221910118       12.7945528788
  C        10.2692996077        4.6132027002        5.8343688062
  H         9.6259684352        6.2984848635        7.0155993996
  C        10.7188968196        2.8547939541        4.6107869787
  H        13.1436051460        2.7656370768       11.1512357651
  H        12.4739809152        1.2913329947       10.6972581861
  C        12.0657810276        2.0229626730       12.6378062088
  C         7.5546736606        7.6777714057       12.9973879128
  C         7.1781859868        5.4770546142       14.0051896598
  C        10.7994178610        5.3193437994        4.6745181238
  C        10.9524962622        4.0129403982        3.8567018596
  S        11.1054246231        1.4197889033        3.8126537247
  H        11.5389137564        2.8469018639       13.0489524469
  H        11.3829535627        1.2232683170       12.8270899970
  C        13.3452495490        1.7294439250       13.4115259870
  N         7.9521061706        8.6062174955       12.0252228030
  C         7.3952122072        8.2390800840       14.2240518346
  C         6.9495656099        6.0888974283       15.2060709951
  H         6.9400119323        4.3822062127       14.0072420206
  C        12.0809780038        6.0105865908        4.9642682339
  C         9.7935948691        6.2092750020        3.8455292656
  C        11.4860054132        3.6491696967        2.5868636849
  C        11.5018807147        2.2728702538        2.3678444977
  H        13.7663416740        2.7732376739       13.6609033104
  H        14.1042133758        1.1322477709       12.8433750824
  C        12.9221474018        1.0334202874       14.6860116443
  S         7.9058284168       10.1014934689       12.7333113960
  N         7.6025122996        9.5820604515       14.2794801488
  C         7.1074408199        7.5613420247       15.3962384632
  H         6.6224692146        5.4509001319       15.9695250397
  H        12.0151865785        6.7760064250        5.7416502875
  H        12.4706812003        6.4851424357        4.0214589448
  C        13.2662705046        5.1182182853        5.4998786321
  H         9.4157506296        7.0168481278        4.4447798576
  H        10.2604238222        6.6197371963        2.9539471477
  C         8.4394215399        5.5389710094        3.4726873570
  H        11.8618584678        4.3951558211        1.9469905953
  C        11.6778587006        1.5518741096        1.0397673649
  H        12.3345580785        0.0814956387       14.6423895556
  H        13.8769949297        0.6818360344       15.0783128160
  C        12.4423481764        2.0190089310       15.7951334153
  C         7.0404710001        8.3167649319       16.6212945601
  H        12.9508287223        4.5910288947        6.4343752440
  H        13.6160856075        4.3923030718        4.7876262265
  C        14.5409092629        5.9023419860        5.8006830084
  H         7.8943885721        5.2777151977        4.3205371444
  H         8.5374643083        4.5662571252        2.9234775337
  C         7.5785283810        6.1989253797        2.3754553656
  C        11.7898403369        0.0965506455        0.8302911628
  C        11.7586205229        2.3440735670       -0.1885444038
  H        11.6002849865        1.6100219010       16.3585021685
  H        11.9937170544        2.9333972197       15.3856714387
  C        13.5630494370        2.3907442854       16.7383276589
  H         7.1862732683        9.3929989257       16.5870868907
  C         6.5601062597        7.8954248542       17.8374938558
  H        14.2490299784        6.8130425920        6.3252385703
  H        15.0124432264        6.1129268355        4.8213256536
  C        15.5383023901        5.0963750811        6.6527893601
  H         8.1625814273        6.9843469810        1.8947023950
  H         7.3569147621        5.4278367270        1.6245881314
  C         6.3010447866        6.8478912695        2.9567416511
  N        11.7105902052       -0.8078191763        1.8451184189
  C        12.0529119380       -0.4826003746       -0.3808116198
  C        12.1149080507        1.7241779572       -1.3788606081
  H        11.5629822027        3.3785821603       -0.2232144109
  H        13.1925671319        2.9911776191       17.4486680608
  H        14.3999614117        2.9298905637       16.1838247805
  H        13.8532017075        1.4626519408       17.2295785480
  S         6.0227464267        6.3141456514       18.2819061740
  C         6.3512144708        8.8697134570       18.8430144321
  H        15.1152533767        4.9578339002        7.6581178958
  H        15.6847446368        4.0639489225        6.2912074334
  C        16.9142019377        5.7664833043        6.6957869441
  H         6.5869151369        7.3570309526        3.9305080830
  H         5.5194951067        6.0969094008        3.2619927582
  C         5.6739948123        7.8812706857        1.9890140578
  S        11.6692289968       -2.3183533716        1.2167835066
  N        12.1822156298       -1.8791269800       -0.2765289363
  C        12.3255680808        0.2537769451       -1.5165686957
  H        12.1181747280        2.2916238418       -2.2523440641
  C         5.5522368637        6.9716916452       19.8419722862
  N         5.8383883773        8.2999019685       19.9901992183
  O         6.5687012288       10.1113236173       18.6749120507
  H        17.2436282526        5.9850295830        5.7140214366
  H        16.8991427881        6.7219811718        7.2122086726
  C        17.9282908297        4.9043477471        7.4323924490
  H         6.3012912754        8.4237227218        1.3324931780
  H         5.0381999781        7.4209914421        1.2736279318
  C         4.8271538667        8.8043033166        2.7662207803
  C        12.4968204552       -0.4066446567       -2.7367148010
  S         4.9223711350        6.0135196763       21.2661514181
  C         5.8210924497        9.0171042754       21.3058691557
  H        17.3837978065        4.6953325378        8.3837333300
  H        18.1484136570        3.9599274602        6.9141589769
  C        19.2115814807        5.6673355705        7.7667882596
  H         5.3241942038        9.1950585037        3.6517117661
  H         3.9262056649        8.4227610356        3.2028386536
  C         4.3510431960       10.0666502979        1.9727825297
  H        12.4764563179       -1.4577529519       -2.7030068885
  C        13.0314257937       -0.0495394915       -3.9960426917
  H         5.1550025869        8.5162298224       22.0457619309
  H         5.3233543055        9.9744964302       21.0509282778
  C         7.2947667410        9.1319934652       21.8583234564
  H        19.9709309197        4.9775976981        8.2228850814
  H        19.0308447725        6.5089136742        8.4815230994
  C        19.8835242103        6.2157240428        6.4413469237
  H         3.6177176615       10.6935405960        2.4356795804
  H         5.2012233271       10.7254924804        1.6623810257
  C         3.5532679737        9.7029099529        0.7625851327
  S        13.5605607815        1.4795771955       -4.4125178485
  C        13.1263567060       -1.0907307836       -5.0153003837
  H         7.7338344489        8.1513316224       22.0659926682
  H         7.2646547341        9.6601493270       22.7787644149
  H         7.9100456600        9.6774939328       21.1006579803
  H        19.3674823336        7.0169054640        6.0643602498
  H        20.8486087802        6.7615145522        6.6532053259
  H        20.0721905629        5.4408530768        5.7101412219
  H         3.2701085025       10.5340338965        0.1478724156
  H         4.1099443907        8.9112291365        0.2087089886
  H         2.6313782709        9.1987643954        1.0400776504
  C        13.9731136868        0.7644486309       -5.9987954414
  N        13.9194019100       -0.5857392814       -5.9992682244
  O        12.8535532463       -2.2749799781       -4.8301547592
  S        14.8076992793        1.5584079309       -7.3406753706
  C        14.3605576178       -1.5355415486       -6.9379524389
  H        14.6498033389       -2.4695072234       -6.5816375349
  H        15.2275071574       -1.1956186978       -7.4961517987
  C        13.3359665757       -1.7015579944       -8.1002518959
  H        13.0660376727       -2.6846264542       -8.4740216934
  H        13.5240518528       -1.0501704652       -8.9100401294
  H        12.4212757300       -1.3555269975       -7.7092360651
  H        -3.4121933483       14.7961815457       16.2707701625
  C        -3.1041270197       13.7594110101       16.3790911224
  H        -3.8299292997       13.3307581565       16.9572666876
  C        -1.8596493523       13.4933242287       17.2082997859
  C        -2.9348228320       13.1088081590       14.9806999609
  C        -1.8913253796       14.1181615283       18.6169343256
  H        -2.0038783673       12.4309465305       17.4034394315
  H        -0.9433054676       13.7248710105       16.7209930924
  H        -2.5930877027       12.0654173846       15.0756842383
  H        -3.8810516327       13.1281116560       14.3591307898
  H        -2.2417788777       13.6078549482       14.3131303770
  C        -1.8563645535       13.0828723146       19.7049509816
  H        -2.7271338344       14.6882934453       18.6470338191
  H        -1.0690384136       14.7813973280       18.8404567922
  C        -2.4760428551       13.5557795141       21.0099769767
  H        -2.3587780461       12.1157660560       19.5772219297
  H        -0.8010155708       12.7801911280       19.8330285577
  C        -1.6311690860       12.9853065822       22.2254217204
  H        -3.4276354118       13.0173747584       21.0668758313
  H        -2.5469891829       14.6226484450       21.0424519859
  C        -0.3078383763       13.7783019302       22.4980175310
  H        -2.3061100180       12.9378041692       23.0773953579
  H        -1.3847436473       11.9173597547       22.0874068370
  C         0.8075376377       12.9069645679       23.2479145341
  H         0.0644724173       14.1569172547       21.5319245141
  H        -0.6475383680       14.5818610157       23.1630576731
  C         1.2023392811       11.5984658043       22.5944555072
  C         0.3545034612       12.2126632663       24.5106068390
  C         1.9947604038       13.8516473457       23.5072184104
  C         1.0624439196       10.4646937830       23.4557251702
  C         1.5123827100       11.1617522030       21.3222353629
  C         0.5381309080       10.8730739517       24.6696564241
  C        -0.0974175567       12.8152448726       25.6580611107
  H         2.1082762249       14.4272894582       22.6203835125
  H         1.6908044578       14.5550681613       24.3031556189
  C         3.2728110898       13.1835960496       23.9714049159
  S         1.4701739325        8.9349253795       22.8317130715
  C         1.8678212455        9.7890220084       21.2775766690
  H         1.7162874867       11.8490170943       20.5428247173
  C         0.0766142504       10.2445708305       25.7945018657
  H        -0.2219085639       13.8741490707       25.5650513624
  C        -0.4165216401       12.1844660249       26.8190943527
  H         3.5024930579       12.1970532422       23.6244772739
  H         3.0166241851       13.0456469985       25.0280504399
  C         4.5542945158       14.0579761751       24.0932741005
  C         2.3608854430        9.1049103625       20.0457845639
  C        -0.3939537191       10.8759430261       26.9563291042
  H         0.2583730891        9.2360196227       25.8730621480
  C        -0.8791004196       12.5770249260       28.0469982233
  H         5.3821223679       13.7028288061       24.8046256474
  H         4.2648064644       15.0519789621       24.4590020026
  C         5.2321673314       14.2057586004       22.6945069280
  C         2.3199028732        7.7376408511       19.7670318077
  C         2.9763066941        9.9099273342       18.9887108283
  C        -0.8533883637       10.2080828082       28.2484144880
  C        -1.1811644837       11.5349877591       28.8820088794
  S        -1.0947582087       14.1261429194       28.7164158164
  H         5.8851189582       15.0736629809       22.7618452982
  H         4.4398801843       14.4273824455       21.9666057078
  C         6.1908527237       13.0399416150       22.4280823811
  N         1.7281106305        6.7745949648       20.6194103424
  C         2.6335498369        7.2452548857       18.5243583105
  C         3.2224988025        9.5185072040       17.7367576222
  H         3.0339347312       10.9491826936       19.1259979515
  C         0.1875858028        9.2834352563       28.8324235013
  C        -2.1856294559        9.4188350222       27.9925858063
  C        -1.5947821574       11.9578194024       30.1245078158
  C        -1.5353297661       13.3359901817       30.2376229659
  H         7.1375879373       13.2465263125       22.8885578497
  H         5.9228764438       12.0608814438       22.9456598749
  C         6.3381533631       12.8256512097       20.9722317196
  S         1.8369472491        5.3000668820       19.8875061256
  N         2.4397286728        5.8617410317       18.4965569755
  C         3.1603622660        8.0348079026       17.4382934864
  H         3.7056734371       10.1984549324       17.1209305205
  H         0.5684630500        8.6452165500       28.0409825122
  H        -0.3572794629        8.7174904390       29.6037816298
  C         1.3715854075        9.9958890046       29.4908680683
  H        -2.1171440097        8.7742473354       27.1412937994
  H        -2.3984053244        8.8784825396       28.8938219980
  C        -3.3696993661       10.3782123826       27.6691128443
  H        -1.7251175858       11.2449048309       30.9693127571
  C        -1.7566980127       14.1153696118       31.4853568841
  H         5.3477050984       12.8250065115       20.5953121548
  H         6.6805083462       11.7872215426       20.9113837527
  C         7.3041837610       13.7088988653       20.2135094324
  C         3.4105096694        7.4109546580       16.1605229210
  H         1.6811467752       10.7857268610       28.8043136438
  H         0.9491710158       10.3382832311       30.4193837189
  C         2.4471690431        8.9907110510       29.8845826280
  H        -3.0875555393       10.9569611412       26.7763548378
  H        -3.6830713181       10.9621552632       28.5597313497
  C        -4.6171245049        9.5769509383       27.2506724997
  C        -1.6821058476       15.5187573104       31.6056424039
  C        -1.9279273240       13.2709892973       32.7295171620
  H         6.9672256469       14.7928536343       20.3207825393
  H         8.2506581029       13.7197122486       20.6543320178
  C         7.4081572699       13.2501026038       18.7466642303
  H         3.3933183693        6.3280156474       16.1982053694
  C         3.6263097259        7.9763431107       14.9372963161
  H         2.8786682814        8.5605770030       28.9914644192
  H         1.8702043725        8.1951887365       30.4171115202
  C         3.4790409035        9.5596562271       30.9091619195
  H        -4.2817739924        8.8511783160       26.5502882153
  H        -4.9779249429        8.9325552406       28.0564116384
  C        -5.6245761259       10.4498781055       26.6578622645
  N        -1.4618411516       16.4036775374       30.5840780208
  C        -1.9043151460       16.1468811370       32.8202496257
  C        -2.1669992828       13.9104834313       33.9837475269
  H        -2.0237829510       12.1811191589       32.7157867587
  H         8.1895832939       13.8793578478       18.2726139194
  H         7.7955104232       12.1917833824       18.7891806403
  H         6.4788941936       13.3100060672       18.1700683338
  S         3.8757127890        9.5960546940       14.4558399022
  C         3.7737588096        6.9751883574       13.8393463473
  H         3.3860690073       10.6785911177       30.8650825580
  H         2.9981121849        9.3152316452       31.8587906902
  C         4.8774120657        9.0090589020       30.9374533254
  H        -5.3202423016       11.1722568952       25.9677794225
  H        -6.0524653210       11.0347936416       27.4497944807
  C        -6.7191889532        9.7904579862       25.9291291308
  S        -1.5784535131       17.9132257320       31.1295384992
  N        -1.8945823919       17.5340705646       32.6568040818
  C        -2.1736611739       15.4483146117       34.0221336116
  H        -2.2837956523       13.2668922161       34.9095553291
  C         4.2198753190        8.9522246682       12.8163587284
  N         4.1744056544        7.6408819735       12.7493179197
  O         3.7702694497        5.7163125234       13.9815341475
  H         5.4284036111        9.5226522097       31.6926181277
  H         5.2997291217        9.1072644280       29.8927557660
  C         4.7883720004        7.4848172264       31.2303104228
  H        -6.1976608803        9.1538507382       25.1499458086
  H        -7.2892549022        9.0828701369       26.4566964195
  C        -7.7497499891       10.7267964794       25.3461382055
  C        -2.6262906781       16.1515902045       35.1856794785
  S         4.7007805903        9.8675730819       11.3340624953
  C         4.1937134275        6.9852073831       11.4935073013
  H         5.1990161875        7.2686547288       32.1671456701
  H         3.7469637300        7.2048643241       31.2937341782
  C         5.2677414080        6.4883902915       30.1168232025
  H        -7.4125343405       10.9819800714       24.3561493202
  H        -7.8631004888       11.6291995286       25.9493591934
  C        -9.1445672012        9.9541345407       25.3225010210
  H        -2.4656123399       17.2289403263       35.1846577972
  C        -3.2046154205       15.7817613138       36.3915348980
  H         4.8321761492        7.4236312157       10.7695144725
  H         4.5097557021        5.9558269901       11.5591391441
  C         2.8447400505        7.0007281686       10.8001104176
  H         5.0930513790        6.9150457225       29.1651278467
  H         4.6222613478        5.6323495233       30.1175261945
  C         6.6692517654        6.1943436624       30.3918866537
  H        -9.8126211028       10.4929422251       24.6408194776
  H        -9.0117659257        8.9206107804       24.9930607149
  C        -9.7079647323        9.8665291264       26.7396936343
  S        -3.6177748532       14.1690014105       36.9459943133
  C        -3.2868430143       16.8277026050       37.4902291108
  H         2.2858369021        7.8871690531       10.9463132304
  H         2.9858327123        6.8745397037        9.6878945266
  H         2.1934556175        6.1533475710       11.0471067365
  H         6.5900430650        5.5307965517       31.2947948080
  H         7.3144373649        7.0664744953       30.5722739847
  H         7.1143165123        5.4931975150       29.6514297762
  H        -9.5976810144       10.8608389343       27.1897939609
  H        -9.2769735967        9.0868198534       27.3134310653
  H       -10.8254321441        9.5672237178       26.7952947112
  C        -3.9272921161       14.9157497875       38.4807068832
  N        -3.7296110820       16.2480348769       38.6274417422
  O        -2.8870829678       18.0057652721       37.3193205671
  S        -4.4472318200       13.9696760890       39.9160171162
  C        -3.8252103017       16.9089347788       39.8845989538
  H        -4.1454736062       17.8715460543       39.4369804446
  H        -4.6881114444       16.6500629496       40.5467081160
  C        -2.4938050095       16.9765959639       40.5941950683
  H        -1.7122585985       17.1990348999       39.9012584243
  H        -2.4417525699       17.6380100376       41.4304193825
  H        -2.1176247409       15.9788351073       40.9481602160
