352
i=
  H         4.2631870670        1.1706963419       12.6861653675
  C         3.7205475289        2.0661063494       12.7703569197
  H         4.4657431970        2.7686339217       13.0348218800
  C         2.9803047764        2.3349288310       11.4375118013
  C         2.6989731796        2.1442395674       13.9771180663
  C         3.9226829553        2.6703817960       10.2617601058
  H         2.3316204486        3.1539451172       11.7201425940
  H         2.2669096780        1.5528413964       11.2390859421
  H         2.1120592863        1.2315662016       14.1071337158
  H         2.1519365030        3.0464058322       13.9342313029
  H         3.4002497950        2.0776090561       14.8746278851
  C         4.6571307518        1.5120824007        9.6294713081
  H         3.3597837675        3.0846214554        9.4293959966
  H         4.6639042711        3.3888778374       10.4674175890
  C         5.6082743276        1.6545510599        8.4451148313
  H         3.9619919469        0.8071302517        9.2396887363
  H         5.0309163520        0.8333141198       10.3967813669
  C         6.6476207574        2.7439858016        8.6071790906
  H         4.9479298654        1.7944655065        7.5622069873
  H         6.1924565018        0.6709421761        8.4912556833
  C         7.9521754394        2.1690180973        9.2404190289
  H         7.0172459419        3.1054509895        7.6596863204
  H         6.1764377262        3.6201596502        9.0706430933
  C         9.0633020598        3.1940379866        9.3594095292
  H         8.3536251171        1.4245778598        8.5119880681
  H         7.9242624926        1.5669762977       10.2223353436
  C         8.4915827455        4.4596061100       10.0841464689
  C         9.3662687111        3.8799966377        8.1581655947
  C        10.2067660565        2.5271788657       10.0667276041
  C         8.6134872596        5.5830722709        9.2773403050
  C         7.8217298658        4.7216548051       11.2860492033
  C         9.2092427400        5.2040699824        8.0650896128
  C        10.0129383805        3.2820403974        7.0830005571
  H         9.7878885451        2.2159040034       11.0209078082
  H        10.4388466719        1.6524261216        9.5375742026
  C        11.4232037452        3.5096573790       10.2067106711
  S         8.0733277813        7.0007099275       10.0142355774
  C         7.7113948280        6.0577773946       11.4465101362
  H         7.6575378583        3.9704363270       12.0866285947
  C         9.4840386380        5.8265334589        6.8845957588
  H        10.1204279762        2.1832966944        7.1299074593
  C        10.3236906149        3.9118628020        5.8835941531
  H        11.1071040795        4.4824448459       10.5863095758
  H        11.8832631429        3.6899239691        9.2623119379
  C        12.4823261540        3.1121432253       11.2205928686
  C         7.4570740245        6.7170115508       12.8079606186
  C        10.0800273200        5.2494077857        5.7790149532
  H         9.2558428850        6.9302487027        6.8553225115
  C        10.6788952510        3.5680122132        4.5973049483
  H        13.2866433896        3.7550348596       11.2237470623
  H        12.8431677686        2.1564500507       10.8993994760
  C        11.7129720725        2.9673945087       12.5455232644
  C         7.5718760865        8.0837498361       13.1018715178
  C         6.7801505649        5.8933843099       13.8041804471
  C        10.4131679160        5.9345156846        4.4783725291
  C        10.7761376078        4.6703282384        3.7693158662
  S        10.9857824406        2.1106834872        3.8382331494
  H        10.9115186764        3.6347272387       12.6250962265
  H        11.2827767176        1.9841394165       12.4082688602
  C        12.6123710424        3.0659901817       13.7937720970
  N         7.7464277876        9.0786279656       12.1283223810
  C         7.2786923389        8.5750660314       14.3471416811
  C         6.6714117259        6.3733326018       15.1183820944
  H         6.6246902587        4.8163887416       13.6078776335
  C        11.6371491554        6.8320881873        4.7099786098
  C         9.2774044936        6.7934567615        3.9395586732
  C        11.0789013252        4.2913166584        2.4565481918
  C        11.3244309970        2.9505761066        2.3436462945
  H        12.1188632656        3.7682729594       14.5505986061
  H        13.5133254086        3.4427687673       13.3421967863
  C        12.9335323161        1.7309869450       14.4570299182
  S         7.5679487127       10.5085856171       12.9184524003
  N         7.3091191462        9.9517043372       14.4370057179
  C         6.9391761921        7.8021973531       15.4591197233
  H         6.2991670578        5.6902074150       15.9245190496
  H        11.4394104254        7.4905693829        5.6182149442
  H        11.8515164958        7.5349361924        3.8769306707
  C        13.0089161568        6.0177173043        5.0601686170
  H         8.9761378113        7.5054077246        4.7051161122
  H         9.7566581643        7.4123882514        3.1404124901
  C         8.0521966050        6.0059269869        3.5083437982
  H        11.2556026012        5.0951233155        1.7342633202
  C        11.6599710903        2.1945007748        1.0600771707
  H        12.0822276035        1.0373931892       14.2052560524
  H        13.9543583323        1.3174578433       14.1653511847
  C        13.0026239992        1.8732814330       15.9509732556
  C         6.6351316143        8.3486641299       16.7043896304
  H        12.9882888506        5.4067261742        5.9153105350
  H        13.2251565559        5.3032849784        4.2572655086
  C        14.3117656716        6.7827175602        5.2209573287
  H         7.5459079949        5.7090592262        4.3662556315
  H         8.3414968468        5.2584292320        2.8680589691
  C         7.1008134238        6.8971154154        2.6926929988
  C        11.7433497322        0.7796325457        0.9853902227
  C        11.9396762439        2.9910410839       -0.1299876086
  H        13.6655891347        2.7155579038       16.2064862964
  H        13.3801789366        0.9343671671       16.3070188153
  C        11.6351946057        1.9435839239       16.6079465521
  H         6.8547914514        9.4100994970       16.7797716012
  C         6.3552106672        7.7346003113       17.9898863991
  H        14.1195138202        7.6145489936        5.9307206839
  H        14.4317046927        7.2358206797        4.2675474758
  C        15.5334958613        5.9358436887        5.6176082328
  H         6.6534496624        7.7803259983        3.1650133056
  H         7.5985170590        7.2794239295        1.8174213972
  C         5.8695477581        6.1474682527        2.1400292031
  N        11.4831315645       -0.1246083484        2.0529560406
  C        12.1018140369        0.1384903649       -0.2184421556
  C        12.2975864531        2.3172111045       -1.3321688178
  H        11.9493785212        4.0630361553       -0.1561586729
  H        11.7201280261        2.1176805089       17.7091928831
  H        11.0032648383        1.1095373859       16.4822279165
  H        11.0423067402        2.7634124689       16.0865826612
  S         5.9541583369        6.1399941659       18.5646875046
  C         6.3161570532        8.7613476039       19.0997833970
  H        15.5843351826        5.0157933410        5.0666103965
  H        16.4587697714        6.2817950827        5.2338962387
  C        15.6602422743        5.5878368313        7.0245281166
  H         5.3159144548        5.6563756968        2.8967828908
  H         6.1000329613        5.3233423515        1.4356972978
  C         4.9422115012        7.1655018269        1.4153943791
  S        11.6014958465       -1.6642427180        1.4312905854
  N        12.0481352814       -1.3005749039       -0.0958474025
  C        12.2974639759        0.8611023254       -1.4585743964
  H        12.3896714165        2.9478434438       -2.1761367323
  C         5.6484293594        6.8544658650       20.1098958066
  N         5.9052369259        8.1947191963       20.2455021734
  O         6.5387456434        9.9854190997       18.9054367091
  H        15.4200748247        6.3961252379        7.6900378419
  H        15.0293902803        4.7174416564        7.1780928870
  C        17.0763230352        5.0424151273        7.2324928891
  H         5.4794379809        7.8458396892        0.8451293711
  H         4.5989659198        6.6068157074        0.5624964425
  C         3.9025500674        7.9832894187        2.2167004021
  C        12.5471690910        0.1022788334       -2.6433251365
  S         4.9756038879        6.0072197128       21.5735260091
  C         5.7625955204        8.8552216950       21.5796593379
  H        17.1490199765        4.4203819863        8.0752213563
  H        17.2630238177        4.4578695788        6.4299591463
  C        18.1564714064        6.1093401883        7.3747182023
  H         4.1524867237        8.4633388323        3.1320127821
  H         3.0509683955        7.3373425111        2.4993736601
  C         3.3312513425        9.0694879482        1.3126861473
  H        12.2001922317       -0.8809097372       -2.5087551289
  C        13.1498548824        0.3469793521       -3.8336928048
  H         4.9089288992        8.6087015496       22.3141653752
  H         5.4791683996        9.8727012233       21.2466852530
  C         7.0335036421        8.7146604751       22.3312462163
  H        18.5679481154        6.0522763186        8.3731111821
  H        17.7301529216        7.0720853767        7.1704407840
  C        19.2625980812        5.9129037366        6.4208963215
  H         2.9116873230        8.6258982684        0.4401729389
  H         2.4931967154        9.5816106423        1.9407458443
  C         4.4272739608       10.1091016995        0.8594092760
  S        13.5865619989        1.9152033172       -4.2924788943
  C        13.3620256747       -0.7345381697       -4.8690838685
  H         7.3285393291        9.7233351621       22.7148426899
  H         7.8964590888        8.4827043115       21.7963360039
  H         7.0322043983        8.0782343330       23.1973899905
  H        19.9109589548        6.7858161539        6.4150186609
  H        19.8993761068        5.0816286310        6.6987518612
  H        18.9731876500        5.6023035904        5.4341681879
  H         5.1076183329       10.5161053126        1.6117376092
  H         5.0977085208        9.7442961130        0.0850920464
  H         3.9477671340       11.0720576874        0.5172433676
  C        14.1450491657        1.1810675076       -5.7341108468
  N        14.0215087499       -0.1832487036       -5.8297871927
  O        13.1156973324       -1.9026669088       -4.7713116996
  S        14.9090106160        1.9346784822       -7.1724114616
  C        14.2699540938       -0.9513278967       -7.0556240082
  H        14.3194335156       -2.0183960491       -6.9666087862
  H        15.2448279784       -0.6699101492       -7.5164668978
  C        13.0262332543       -0.7141716894       -7.8560923664
  H        13.2871106360       -0.0580745182       -8.7600836846
  H        12.1138800004       -0.3639665631       -7.4059873410
  H        12.8092157292       -1.7459843980       -8.2619761406
  H        -3.3915078221       14.7062425266       16.5795241179
  C        -3.2293210441       13.6613229295       16.4733136087
  H        -4.2358885937       13.2809453844       16.6194715347
  C        -2.1873811129       13.2841904966       17.5367375884
  C        -2.7594257098       13.2237808243       15.0970343002
  C        -2.6261275312       13.7434803196       18.8654103614
  H        -1.9561095827       12.1848221164       17.5224577879
  H        -1.2726602386       13.8215795640       17.2578660849
  H        -3.6089279651       13.1560014958       14.3913434419
  H        -2.2187278626       14.0908231918       14.6328892441
  H        -2.1919533596       12.2974689392       15.2329245232
  C        -1.5338586235       13.5137564652       19.8515657467
  H        -3.4539648769       13.3231042849       19.3624356988
  H        -2.8410072459       14.7612691347       18.8066682364
  C        -2.1571966945       13.3460614404       21.2726419386
  H        -0.8076258153       12.7674747668       19.5143870453
  H        -1.0421613446       14.4853736099       19.8897994151
  C        -1.1594954225       12.7703937319       22.1786971862
  H        -2.9091332326       12.6060082497       21.2381380039
  H        -2.5715520901       14.3523207288       21.6445139208
  C        -0.0467113472       13.7944817160       22.5851854665
  H        -1.7744723079       12.4745054838       23.0488703411
  H        -0.7963572744       11.8532131308       21.8007702919
  C         1.0492395781       13.1043732925       23.3455951108
  H         0.3699410370       14.4307474187       21.7939106411
  H        -0.4759311459       14.5191153823       23.2379542393
  C         1.4755082698       11.8057839208       22.6940109211
  C         0.6445044809       12.3941844403       24.5642507030
  C         2.2938533290       14.0232416785       23.6426839214
  C         1.4111421727       10.7420703617       23.5897588502
  C         2.0312010713       11.4446924713       21.4110327335
  C         0.7215649932       11.0632940853       24.7312247438
  C         0.2005036998       12.9955887935       25.7619190495
  H         2.5129560038       14.6135620098       22.7607847707
  H         2.0154694283       14.6724509903       24.4621915865
  C         3.5643476203       13.3609337326       24.1982443950
  S         2.0109177763        9.2321661541       22.9248955695
  C         2.2223784584       10.0584463461       21.4049089600
  H         2.1256822165       12.0436807825       20.5530782432
  C         0.3192305056       10.4281740258       25.8979438055
  H         0.0802837376       14.0986931999       25.7053864814
  C        -0.1379174183       12.3587647243       26.8949841772
  H         3.6720218496       12.4463945206       23.6358790300
  H         3.3183870231       13.0230248770       25.1397684870
  C         4.8388439883       14.1936091801       24.0586287231
  C         2.5803411222        9.2587224066       20.1970677391
  C        -0.2442942754       11.0240095166       27.0161122545
  H         0.3253669484        9.3906307517       25.9332262539
  C        -0.6874235306       12.7569656455       28.0628085319
  H         5.6492983024       13.7176174452       24.7243280361
  H         4.6982019617       15.2340715300       24.4360102322
  C         5.3496091030       14.2079677795       22.6525036148
  C         2.3607976060        7.9467928730       19.9238544543
  C         3.0115929341       10.1033188718       19.0414339035
  C        -0.6318771661       10.3386461205       28.2583202616
  C        -0.9751462962       11.6881661360       28.9163430343
  S        -0.9104500309       14.2395161547       28.8129933227
  H         6.0998881010       14.9880950125       22.6114436966
  H         4.7266245622       14.6087443398       21.8082003986
  C         5.9326298894       12.9271496105       22.1828377323
  N         1.6856064990        7.0479576527       20.8285398920
  C         2.5920130573        7.3526649509       18.6585193374
  C         3.2200085689        9.5751244332       17.7701443894
  H         3.3450931432       11.2060164690       19.0966392159
  C         0.5501120579        9.5838345388       28.8829617637
  C        -1.9645819163        9.4351732704       28.0886662496
  C        -1.3063192514       12.1137916147       30.2284871313
  C        -1.2352457357       13.4670854471       30.3777244603
  H         6.8503174027       12.6778998594       22.6867291448
  H         5.3095684054       12.1204067155       22.5136014564
  C         6.0341466824       12.8525274168       20.6425378678
  S         1.7506425202        5.5891167747       20.1517127926
  N         2.2887073667        6.0445927657       18.6487441707
  C         2.9908187982        8.0756251335       17.5050477845
  H         3.6296849759       10.1295770511       17.0021053134
  H         1.0546302604        8.9956682183       28.1451773366
  H         0.1847921521        8.8777676258       29.5504169003
  C         1.5486207110       10.4013946447       29.6474151441
  H        -1.8095252604        8.4982361546       27.4717767144
  H        -2.2056906479        9.1558379272       29.1420919239
  C        -3.1708656542       10.1578096288       27.3980429349
  H        -1.4625559176       11.4054455467       30.9299148326
  C        -1.5234623165       14.2847464628       31.6557588321
  H         5.1223825293       13.2347236249       20.0543811661
  H         6.0660802166       11.7609839579       20.5176602110
  C         7.3965917248       13.4472216333       20.2878450608
  C         3.2047124466        7.3842945412       16.3171504289
  H         2.0781604979       11.1745735900       29.0850820318
  H         1.0872110641       10.8296653066       30.5990187971
  C         2.6365316745        9.5211718114       30.1510037655
  H        -2.9100220371       10.4631916921       26.3917512116
  H        -3.4760023381       11.0079515609       27.9576817059
  C        -4.2328566891        9.2089800893       26.9686903300
  C        -1.7172510983       15.6955056927       31.6772324460
  C        -1.7353897493       13.5381474975       32.9044036501
  H         7.7145723485       14.3882906985       20.8215262595
  H         8.0920293537       12.6223206267       20.4873996817
  C         7.4669407300       13.7407549777       18.8526668705
  H         3.0222414972        6.2959850702       16.4242944177
  C         3.5107172192        7.7829004712       15.0093941354
  H         2.9529732260        8.7681823723       29.4158000671
  H         2.2789732326        8.9149558572       31.0109595935
  C         3.8731371879       10.3838082509       30.5758562007
  H        -3.8293814685        8.4372521753       26.3535964412
  H        -4.6226749723        8.7587008213       27.8654316596
  C        -5.2723555311        9.9968982235       26.1116066609
  N        -1.6551372551       16.4899245077       30.5261739573
  C        -2.1712492404       16.3400331200       32.7606354668
  C        -2.1557702406       14.1766342470       34.0250112362
  H        -1.5010908952       12.4748102122       32.8748159249
  H         7.0998195566       12.7778716728       18.4125025369
  H         6.8511466877       14.6338677021       18.6313212381
  H         8.5024507976       14.0459065052       18.4780297541
  S         3.9182079822        9.3429642700       14.4772971889
  C         3.5649264338        6.7349759539       13.9513964648
  H         4.1889580252       11.1083591152       29.7977393065
  H         3.6174862831       10.9071779534       31.4935979844
  C         5.1298935548        9.4965753959       30.5670447523
  H        -4.8788935885       10.2798749564       25.0946780061
  H        -5.4791441027       10.9694294786       26.6043099715
  C        -6.5613877337        9.2074818665       26.0641381095
  S        -1.7795062581       18.0479355150       31.0953113817
  N        -2.3030752844       17.6793620510       32.6151626188
  C        -2.5090957742       15.6526664716       33.9401197063
  H        -2.2715894293       13.6646703527       34.9308131588
  C         3.8998696193        8.6425811551       12.8372001658
  N         3.9108949185        7.3040749358       12.7569975619
  O         3.2623255087        5.5599742762       14.0889005900
  H         5.9258869750       10.2263657809       30.6807271809
  H         5.2701883746        8.9880506136       29.6286883637
  C         5.1186076934        8.5506436410       31.7584135300
  H        -6.4966741652        8.3533629614       25.3541340472
  H        -6.7793511771        8.7308346312       26.9800888264
  C        -7.6374128031       10.2102675682       25.8333351450
  C        -2.7286404168       16.4666687593       35.1100982328
  S         4.4316921320        9.5194349815       11.4482740337
  C         3.8756626125        6.5025290975       11.5216561785
  H         5.2303143046        9.1761418468       32.6547325248
  H         4.1472774589        7.9589078975       31.7330252931
  C         6.1530362672        7.4664385428       31.5985028409
  H        -7.3679314519       10.9589071815       25.0290017403
  H        -7.8009456223       10.6893195365       26.8394031943
  C        -8.9735363067        9.6541840105       25.3805096993
  H        -2.7214406283       17.5205032511       34.8518866061
  C        -3.2600134387       16.2197597340       36.3783884139
  H         4.6409694253        6.7031006071       10.8823459715
  H         4.0101249814        5.4621069966       11.7568104612
  C         2.4877509239        6.6234972699       10.8234643769
  H         6.2455062296        6.8588267440       32.4701061320
  H         7.1673471927        7.8789833883       31.5377654758
  C         5.8756921959        6.5453667515       30.3280649815
  H        -9.2966452899        9.8998214117       24.3514466530
  H        -8.8528768331        8.5852267612       25.4040587237
  C       -10.0582642237        9.9001429849       26.4242037365
  S        -3.8440928472       14.7179362855       36.9414931845
  C        -3.4484714379       17.3595950422       37.2803443748
  H         2.1690822767        7.6118982398       10.4040659519
  H         2.4776576801        5.9040096940        9.9668858953
  H         1.7045982935        6.2459858596       11.5940239421
  H         6.2724285307        5.5218951087       30.5193944265
  H         6.2671872181        6.9711354012       29.4422091830
  H         4.7711919184        6.5721893913       30.1511712775
  H       -10.4185678960       10.9743855839       26.4564802682
  H        -9.6804423354        9.7631789245       27.4369023413
  H       -10.8638617187        9.2072378629       26.1725835434
  C        -4.1529136365       15.5726188067       38.5016900067
  N        -4.0081802011       16.9572445380       38.4220217897
  O        -3.1174787929       18.5332265400       37.0182680889
  S        -4.6670523408       14.8186046794       40.0514268127
  C        -4.0585275997       17.8212156105       39.5811333875
  H        -4.1278955522       18.8205855874       39.2345960939
  H        -5.0017659919       17.6033031818       40.1860814374
  C        -2.8000138521       17.6256645099       40.4414878547
  H        -2.5865954991       18.3666153837       41.2660335234
  H        -2.8699045837       16.6504586798       40.9490765776
  H        -1.8985503553       17.5569427472       39.8805413904
