352
i=
  H         4.8249011683        1.7282873860       12.4605398249
  C         3.9826612133        2.4473761088       12.6451655124
  H         4.5359373557        3.3644688842       12.6166570656
  C         2.9610874183        2.4139415407       11.5510738473
  C         3.4004256742        2.2290854368       14.0341825314
  C         3.5119410214        2.8555402352       10.2085785392
  H         2.2596925974        3.1504305632       11.9593623144
  H         2.3453330922        1.5571476248       11.3713148922
  H         4.0401255593        2.3074229556       14.8712245760
  H         2.9722602167        1.1973016092       14.0638299329
  H         2.5490279153        2.8548598178       14.2412044768
  C         4.1238373710        1.6105323380        9.4559782894
  H         2.6988089135        3.2833636866        9.6419395079
  H         4.2059726641        3.6543868535       10.2324294959
  C         5.0411742260        1.9866825681        8.2262054182
  H         3.2993435985        1.0677842006        8.9329630038
  H         4.7658629221        1.0090888082       10.1434180265
  C         6.2532933383        2.7743073066        8.4904768452
  H         4.4381438494        2.4727827497        7.4640951413
  H         5.1829560249        1.0376931619        7.7343584442
  C         7.4662258829        1.9337458826        8.8884768449
  H         6.4639059985        3.3102631440        7.5514557922
  H         6.0711726317        3.4744017709        9.2692667906
  C         8.7462516541        2.8434100327        9.0837454170
  H         7.7937055566        1.1246229741        8.1693722788
  H         7.1812746477        1.4181198576        9.8162801224
  C         8.5054013983        4.2078569324        9.8275594670
  C         9.1521034223        3.5628878198        7.8383278890
  C         9.9198084967        2.1018259557        9.7954494755
  C         8.6435329580        5.2795769304        8.9671847194
  C         8.0811366409        4.6287713388       11.0924792775
  C         9.0362981737        4.9539141049        7.6908641554
  C         9.6867889525        2.9780087426        6.7180881361
  H         9.4913495801        1.7670491167       10.7450308089
  H        10.0845147699        1.1572626845        9.2884533384
  C        11.1276432211        2.9382561713       10.1324409217
  S         8.3573599601        6.7928920729        9.6868307044
  C         7.9969894146        5.9792625907       11.2080853602
  H         7.9111842002        3.8840969203       11.8872431995
  C         9.4229740962        5.6426418043        6.5642062565
  H         9.9635858912        1.9806121579        6.8739820349
  C         9.9894717800        3.6338317775        5.5651528695
  H        10.8223700165        3.9163839603       10.5054744747
  H        11.5626149399        3.3384732685        9.1756677791
  C        12.1266010863        2.3766399871       11.1619377515
  C         7.7023520131        6.6495302624       12.4970899608
  C         9.8824235718        4.9497003066        5.4122526299
  H         9.4434549266        6.7547831411        6.5735643412
  C        10.3906947329        3.2618240971        4.2850572252
  H        13.1007943284        2.9320496349       11.0782151575
  H        12.2796198994        1.4247731350       10.7869950526
  C        11.4431222889        2.4392464723       12.5451882527
  C         7.7138214992        8.0068401816       12.7777901095
  C         7.3339357389        5.8806798464       13.7013960148
  C        10.3880628838        5.6366329494        4.1568349770
  C        10.6386369532        4.2799987389        3.4461017376
  S        10.6808746557        1.7323111169        3.6134059720
  H        11.1738632298        3.4613459236       12.7653597956
  H        10.3810511761        2.0408775168       12.3913691625
  C        12.2044446656        1.8921973279       13.7483301690
  N         7.9516478709        8.9755762878       11.7972955965
  C         7.4091994672        8.5837960091       14.0147757473
  C         7.0945406749        6.4666744356       14.9567692565
  H         7.3191556491        4.8221072642       13.6301650907
  C        11.6778095341        6.3557259391        4.3880269769
  C         9.4073617259        6.4710394379        3.3702386043
  C        11.0769853569        3.8855602173        2.2137105779
  C        11.1504900018        2.5381536060        2.1687667825
  H        13.2581351777        2.1005445787       13.6270627377
  H        12.0245528017        0.7533473178       13.9351934531
  C        11.7565628052        2.4654027871       15.0318967748
  S         7.8513344626       10.4567512798       12.4961278260
  N         7.5205010502        9.9798637915       14.0278966030
  C         7.1333334317        7.9104839715       15.1835143896
  H         6.7402367336        5.8110484203       15.6921120340
  H        11.5017452397        7.2418791006        4.9031690699
  H        12.1327612853        6.6872290653        3.4339459321
  C        12.8105021356        5.6246747332        5.1185042430
  H         8.8494823312        7.1888077563        3.9564010063
  H         9.9850285595        6.9884399855        2.6285966188
  C         8.1897119850        5.6942774989        2.9040300497
  H        11.3544775239        4.5921874536        1.5032257890
  C        11.5357939152        1.6567854199        1.0220100717
  H        11.8718313603        3.5684572590       15.0999603498
  H        10.6874693781        2.3397081106       15.1880720728
  C        12.5650951397        1.7307469832       16.1377585914
  C         6.9797294633        8.5568122916       16.4310141789
  H        12.6399421309        5.5762363573        6.1936382350
  H        12.7977201567        4.6300200304        4.7742766507
  C        14.1569437780        6.2164230409        4.9756003575
  H         7.6652552302        5.1403071480        3.6561448730
  H         8.3784906026        4.9559617566        2.0892136856
  C         7.1650053903        6.6635701530        2.3699413093
  C        11.6371669128        0.2476754814        0.8874604105
  C        11.8977066596        2.4198477852       -0.2300321260
  H        13.4627577380        1.3243683922       15.7620098930
  H        11.9127858473        0.8504285391       16.2716493741
  C        12.5874661547        2.4837602406       17.4453799727
  H         7.3242556558        9.5607749104       16.4582024882
  C         6.5960919162        8.0900803409       17.6741147164
  H        14.1658211135        7.2385044371        5.3921942822
  H        14.5055043075        6.3439342439        3.9343580343
  C        15.1576422940        5.4620678082        5.7912435580
  H         6.8178675327        7.4138563462        3.0945025482
  H         7.5965711014        7.2611963915        1.6201445092
  C         5.9486318816        5.9950080301        1.8196883126
  N        11.4820177259       -0.6091865201        1.9523387427
  C        11.8957145218       -0.4550087300       -0.3481938358
  C        12.0670485218        1.7331514354       -1.4201028389
  H        11.9029714175        3.5068039545       -0.1708107571
  H        12.8252756517        3.4981890961       17.3489781772
  H        13.2630630368        2.0603550172       18.1731245209
  H        11.6649450741        2.3381060042       17.9486037851
  S         6.1541848739        6.4963693879       18.1681384393
  C         6.5722207647        9.0938715062       18.7363986244
  H        14.7181747433        5.2813439504        6.7606873833
  H        15.3753504125        4.4702578167        5.2923110999
  C        16.3825202846        6.2036967066        6.2258864849
  H         5.4456920636        5.3293744763        2.5437403713
  H         6.0960598301        5.2879621321        1.0073745200
  C         4.8760128648        7.0304147785        1.3337339995
  S        11.2942086922       -2.1291459886        1.3435714170
  N        11.7721418237       -1.8223863642       -0.2199610874
  C        12.1512009393        0.2289520405       -1.5471076220
  H        12.2770680542        2.3001982317       -2.2909581127
  C         6.0639883054        7.1889567425       19.7426318926
  N         6.1160751500        8.5025972080       19.8403953813
  O         6.7424912094       10.2901348370       18.5422169681
  H        16.7510244345        6.6459153244        5.2717544670
  H        16.1195989407        6.9858498209        6.8559413551
  C        17.2728881864        5.1628423188        6.8824955979
  H         5.4193939600        7.6965823705        0.7265877863
  H         4.1993183316        6.6017351689        0.5842432988
  C         3.8771391416        7.4800798040        2.4126486197
  C        12.3905601777       -0.5226776241       -2.7000446395
  S         5.4922153312        6.3217491315       21.1415752329
  C         6.0932157769        9.2378623681       21.0951167072
  H        16.6719076186        4.5663403176        7.6371646253
  H        17.5814293128        4.4304956576        6.1723487196
  C        18.4287525333        5.8697342563        7.5162907922
  H         4.3244257902        7.8451085203        3.3299778046
  H         3.2539342763        6.6389464036        2.7070944732
  C         3.0042119623        8.6590116066        1.9059148804
  H        12.2927397201       -1.5478523100       -2.5565833169
  C        12.7581753654       -0.1511880373       -4.0131537722
  H         5.3504958980        9.0572882800       21.8057790204
  H         5.8483466969       10.2984632563       20.7433028628
  C         7.5292675016        9.3523811448       21.6764399883
  H        18.7307395666        5.2672138701        8.4181741039
  H        18.0638743819        6.8053432065        7.9159416589
  C        19.5692173224        6.0128644276        6.5213713037
  H         2.6068121392        8.4309507633        0.9354001214
  H         2.1586017111        8.8241227645        2.5350916903
  C         3.8139792362        9.9477051030        1.7631879537
  S        13.1002200400        1.4582386739       -4.5567049529
  C        12.9886858005       -1.2268440410       -4.9767335294
  H         8.3595948906        9.5837900988       20.9268907383
  H         7.6834439205        8.5560496945       22.2334981569
  H         7.4401021790       10.2398943046       22.3086423758
  H        20.4320075114        6.6054291474        6.8650326930
  H        19.9655528023        4.9958919927        6.2653506615
  H        19.3304086634        6.4820473428        5.5445195687
  H         3.0620178183       10.6885409173        1.7409643820
  H         4.3606449072       10.1339962843        2.6928486429
  H         4.3671009769       10.1010555390        0.8142660738
  C        13.6140217956        0.6901253876       -6.0753798214
  N        13.4587295689       -0.6648259367       -6.1222694094
  O        12.7403154122       -2.3715895607       -4.7246008520
  S        14.2226680932        1.4858655352       -7.5354673517
  C        13.6635568859       -1.5767768411       -7.3371923544
  H        13.9274797723       -2.5229984170       -6.8823304836
  H        14.6298662458       -1.4463346397       -7.9055780258
  C        12.3724077083       -1.6692350157       -8.1598667674
  H        12.2657558302       -2.6175952580       -8.7767147368
  H        12.2103355441       -0.8067024967       -8.8861591881
  H        11.5766783624       -1.5482122578       -7.3767623449
  H        -4.3584741379       13.3429803867       16.1013331533
  C        -3.3343628480       13.5757173487       16.1080594363
  H        -2.7807204224       12.6511166631       16.4035225702
  C        -3.0026532836       14.6927967954       17.1118971225
  C        -2.9070729466       13.9744572543       14.6349587718
  C        -3.3548374804       14.4589740190       18.6184133919
  H        -1.9604063439       14.9812855965       17.0493342449
  H        -3.4804796152       15.6092317757       16.7200519642
  H        -2.9218988935       13.2111713937       13.9056913415
  H        -3.5616363482       14.7352278793       14.2029172901
  H        -1.8919749026       14.2644040861       14.7142388532
  C        -2.1119300071       14.2047598792       19.5149530623
  H        -4.0763784898       13.6708765427       18.7074751135
  H        -3.7474324980       15.3411797505       18.9145877006
  C        -2.5939333904       13.9386158293       20.9547232844
  H        -1.5462148895       13.3234138348       19.1246328411
  H        -1.6266425308       15.1477030369       19.4587033309
  C        -1.4030864908       13.3215862205       21.7280349129
  H        -3.4467391209       13.2894357690       21.0556369250
  H        -2.6605590994       14.9249650634       21.4523472151
  C        -0.3034911587       14.1812369945       22.0933277053
  H        -1.7521920207       12.7846055515       22.6137653066
  H        -1.0442809975       12.5358787442       21.0972347331
  C         0.7416258157       13.3678258106       22.8663041827
  H         0.3970841719       14.4193577213       21.2131220739
  H        -0.6816832906       14.9959086292       22.6084776659
  C         1.2221956795       11.9719159512       22.2981600070
  C         0.2677877014       12.5944802894       24.1080356960
  C         2.0242602696       14.2663988805       23.1288376814
  C         1.1762263724       10.9058939535       23.1590199142
  C         1.8293885327       11.5701184859       21.0901381583
  C         0.5332484005       11.2344532963       24.2920354835
  C        -0.2526277401       13.1524795535       25.2746044098
  H         2.1998569741       14.7894070847       22.1851224054
  H         1.7653040530       14.9109463798       23.8704170060
  C         3.3213956329       13.5314937094       23.5640617676
  S         1.7994812412        9.4591544615       22.5361681294
  C         2.1075496627       10.2429135730       21.0486272174
  H         2.0051958248       12.3006657728       20.2720389658
  C         0.0756644927       10.5514882618       25.3794041489
  H        -0.4821452423       14.2325111424       25.3157057916
  C        -0.5486184612       12.4585326531       26.4749178439
  H         3.7004513401       12.8506319032       22.7848920579
  H         3.1575166638       13.0088265266       24.5212715566
  C         4.4175673339       14.5588999272       23.9190711359
  C         2.5678319946        9.4633210523       19.8720110419
  C        -0.3970488148       11.0941512359       26.5262474058
  H         0.3751491958        9.5001509810       25.2746142741
  C        -0.9940853543       12.8330094309       27.6979120218
  H         5.0905683803       14.1195928021       24.6893527127
  H         3.9861670709       15.4598969822       24.3273107570
  C         5.2384433704       14.9590306158       22.7027690501
  C         2.4243388521        8.0968155592       19.6299509524
  C         3.2596399401       10.1755352684       18.7975871090
  C        -0.5583871247       10.3728362904       27.8294855319
  C        -0.8837043032       11.7306053339       28.5512298210
  S        -1.3964982385       14.2112421216       28.4746274288
  H         5.9757016297       15.6260532974       23.0277316738
  H         4.6206654780       15.4900061838       21.9404837279
  C         6.1076553820       13.8241110600       22.1424953276
  N         1.9228178201        7.1645591545       20.5667324155
  C         2.7969446835        7.5268480607       18.4235101021
  C         3.5855202047        9.6790257225       17.5959424877
  H         3.2675803241       11.2362267730       18.9076812532
  C         0.7910905769        9.6392668801       28.1783011209
  C        -1.6737227242        9.3708830841       27.7994080572
  C        -1.1358879359       12.0880967066       29.8888272349
  C        -1.4576534249       13.3992538252       30.0404291314
  H         7.1474497701       14.1702718097       22.0993251777
  H         5.9610304670       12.9387275715       22.7588214368
  C         5.6189142536       13.4639147901       20.7194200792
  S         2.1021029049        5.7354204211       19.9210067484
  N         2.5136687034        6.1284408747       18.4164900350
  C         3.2872565666        8.2339227581       17.3014455937
  H         3.8978350461       10.3151674313       16.7975308483
  H         1.3156199906        9.0549279023       27.3722062286
  H         0.5359283319        8.7896960169       28.9078197280
  C         1.7870465883       10.5601928775       28.8881265915
  H        -1.3140959234        8.4882004447       27.1510051353
  H        -1.7850474797        8.9337823935       28.7785508681
  C        -2.9652449556        9.9105698410       27.3201853281
  H        -0.9903109236       11.2775219886       30.5344442906
  C        -1.8690982482       14.1261184884       31.3145112935
  H         4.6106967563       13.9305300717       20.6562264333
  H         5.4915050862       12.4004779802       20.7126045372
  C         6.5530355054       13.9668682515       19.5511732936
  C         3.5613141486        7.5306255813       16.0443764464
  H         2.1952671766       11.2431570210       28.1595362839
  H         1.3259950617       10.9677168363       29.7966305094
  C         3.0176618339        9.8895427244       29.5046440252
  H        -2.7516180695       10.3193533219       26.2964879302
  H        -3.2645399734       10.7060387928       28.0504903332
  C        -4.1670871946        8.8859369806       27.2903487714
  C        -1.7968930726       15.5500824890       31.4892499107
  C        -2.0974229445       13.3315583736       32.5603560744
  H         5.9729227703       13.8683879846       18.6303621089
  H         6.6660853966       15.0492988988       19.7762446865
  C         7.9653544841       13.2371100788       19.4830988527
  H         3.3815327211        6.4827163501       16.2137286507
  C         3.7652112087        7.9353035297       14.7282972916
  H         3.4291646232        9.3384015128       28.6284873809
  H         2.8845933843        9.1743827416       30.3146968660
  C         4.1495759044       10.8944191445       29.8263110466
  H        -3.8756311015        8.1616031236       26.5073603801
  H        -4.3217398556        8.4831099165       28.2920686542
  C        -5.4739912368        9.5465398950       26.9266271358
  N        -1.3409946044       16.3521541199       30.4647841278
  C        -2.1688891810       16.1846492465       32.6521901969
  C        -2.3645428502       13.9607621811       33.7999499497
  H        -1.9179600916       12.2703676747       32.5883126145
  H         8.7802106238       13.9609473749       19.7633747967
  H         8.0179501259       12.3348186133       20.1222354617
  H         8.1208769352       12.8895205895       18.4435294276
  S         4.1354020125        9.4835270623       14.0797718588
  C         3.7071525018        6.8512649350       13.6724644651
  H         4.2065192502       11.5293596982       28.9638683079
  H         3.7459406942       11.5873668597       30.5912580835
  C         5.5217853636       10.2838655518       30.1537910145
  H        -5.6389534826       10.3565986569       27.6369497750
  H        -6.1900000929        8.8062804680       27.0759240034
  C        -5.7308848014       10.0854897330       25.4764525929
  S        -1.4879826443       17.8988363642       31.0255854350
  N        -2.0319831079       17.5930089772       32.5506752400
  C        -2.4574074486       15.4705419817       33.8408522358
  H        -2.4203182346       13.3763181244       34.6715987289
  C         4.3237952705        8.7033447331       12.5477030392
  N         3.9836640612        7.3518224476       12.4841672781
  O         3.5806979118        5.6440829467       13.9787331770
  H         6.1720689487       11.1431223891       30.5248684804
  H         6.1055048475        9.9520547432       29.3336724646
  C         5.4162756459        9.1590744447       31.2065491610
  H        -4.9990778339       10.8620158112       25.3008232345
  H        -5.5474961973        9.2563629955       24.8174226580
  C        -7.1418507589       10.6147820387       25.2958952462
  C        -2.7137585810       16.3032967720       34.9754067657
  S         4.5937080239        9.5473812177       11.0826018687
  C         4.0330387006        6.5212893858       11.3110099825
  H         6.3888431363        9.1265566293       31.7019787545
  H         4.6804411578        9.3097068807       31.9583543620
  C         5.3037811934        7.8161857726       30.5184919311
  H        -7.2521020269       10.9676897793       24.2622249021
  H        -7.1854295891       11.5358478144       25.9383669945
  C        -8.3611146570        9.7306684298       25.5351287413
  H        -2.3869680322       17.3227077941       34.9283878937
  C        -3.2298067662       16.0146089828       36.2214934669
  H         4.4759131947        6.9785058747       10.4624430207
  H         4.6769472644        5.7060423735       11.5214973848
  C         2.6380721322        6.0656015723       10.9278454212
  H         5.4590630404        7.7756248091       29.3674434832
  H         4.3237204207        7.3925820194       30.5595831876
  C         6.0820864147        6.6972331942       31.2644873311
  H        -8.6281420975        9.1466294599       24.6711238256
  H        -8.2697910485        9.0469890727       26.3548270052
  C        -9.4513094334       10.7043439373       25.7949431979
  S        -3.8089883452       14.5306698393       36.6677681400
  C        -3.3213989536       17.1087942098       37.2407296629
  H         2.0333494090        6.9991583975       10.8704720617
  H         2.5882591394        5.5884568549       10.0299694010
  H         2.2448250655        5.4276430580       11.6804494709
  H         6.1434658610        6.9384750151       32.3294705776
  H         7.0689087515        6.5985043471       30.7672774643
  H         5.7043052148        5.7090857333       31.0952788916
  H        -9.4704173555       10.9115870794       26.8707705974
  H       -10.4022987094       10.2522116344       25.5007341210
  H        -9.2557476982       11.6605101183       25.2375769596
  C        -4.0888775312       15.2516039939       38.2167843190
  N        -3.9303396396       16.5937583638       38.3175358410
  O        -2.9195212166       18.2267114074       37.0151605725
  S        -4.6936725942       14.4498978714       39.6821854959
  C        -4.0741110120       17.4197157896       39.5057799121
  H        -4.1272470699       18.4711448300       39.1687985883
  H        -5.0594562571       17.0986115225       39.9722550908
  C        -2.8582834698       17.3152189899       40.4184646686
  H        -3.0483007484       17.5587688824       41.4225098210
  H        -2.5505985414       16.2543913343       40.5502827441
  H        -2.1429458344       17.8885162925       39.8852482802
