352
i=
  H         4.5146510466        1.0818172075       12.8941723943
  C         3.8958713353        1.9660254211       12.9477549215
  H         4.6785832446        2.7462633398       13.0076113809
  C         3.0978838797        2.2175996159       11.6291821343
  C         3.0498078389        1.9444191509       14.2715717699
  C         4.0296074173        2.6161448489       10.4037145192
  H         2.2825423900        2.9399089704       11.7705651644
  H         2.6559705135        1.2503675400       11.3161382152
  H         2.2288073712        1.1930567463       14.3019940623
  H         2.7576940197        2.9833682118       14.4183468219
  H         3.5560732727        1.6360000655       15.1855026172
  C         4.4192854905        1.3574644138        9.6137181117
  H         3.5097898954        3.2686289702        9.7183799184
  H         4.8985588913        3.1137812519       10.8424090542
  C         5.1029130065        1.5478909188        8.2847162287
  H         3.5647367079        0.7328082433        9.3808993777
  H         5.0821586152        0.7507312061       10.2271678315
  C         6.3219899387        2.3557379559        8.4124571536
  H         4.4197090260        1.9368415164        7.5452493264
  H         5.2797187309        0.6394045259        7.7292782328
  C         7.4241209452        1.6202362763        9.2564677622
  H         6.6816061330        2.6153147638        7.4713054406
  H         6.0379255866        3.2339941396        8.8959797872
  C         8.7654360629        2.4322884200        9.4034205097
  H         7.7196473813        0.7678765593        8.6031962301
  H         7.0395445728        1.1280659668       10.1481526530
  C         8.4123772448        3.7899723340       10.1140776153
  C         9.1887205676        3.1279719661        8.1028704462
  C         9.9244965894        1.6982541315       10.1516218642
  C         8.6025450717        4.8849815709        9.2440018654
  C         7.9795152741        4.2189251120       11.3576378552
  C         9.1655403567        4.4750524494        8.0103499806
  C         9.6692116971        2.5433619979        6.9745239217
  H         9.4555487876        1.2430817593       11.0095512642
  H        10.3108518650        0.9502207999        9.4001330352
  C        11.1697358592        2.5494080558       10.5089091839
  S         8.2253564551        6.3756979910       10.0004317312
  C         7.7843799918        5.5262784752       11.4065613456
  H         7.9659275005        3.5393777365       12.1961151100
  C         9.6212879520        5.1359445472        6.9396199935
  H         9.7501154713        1.4500245089        7.0262526725
  C        10.0418933321        3.1877045972        5.8612092590
  H        10.9671897635        3.4030266119       11.1727395809
  H        11.4586881964        3.0178288528        9.5472174803
  C        12.3392394003        1.7456287917       11.1263995440
  C         7.4090514531        6.1978528203       12.7190041718
  C        10.0546924616        4.5177785968        5.7950274447
  H         9.7763524329        6.1947161472        6.8701776626
  C        10.4904318279        2.7815430267        4.5722203987
  H        13.2803439175        2.3784752559       11.0080561915
  H        12.4636525005        0.8732251503       10.4240431809
  C        12.2305265179        1.3793689663       12.5729403501
  C         7.5663346491        7.5557568270       12.9560364063
  C         7.0256381405        5.3773422131       13.8641514237
  C        10.4364812121        5.2855022173        4.4857237755
  C        10.6424387714        3.8890985543        3.7536748150
  S        10.9872264878        1.3103659893        3.7617679186
  H        11.6382259007        0.4152129930       12.6834877144
  H        13.2625837821        1.1401769775       12.9365715994
  C        11.5650733223        2.3797453694       13.6507877861
  N         7.8881798697        8.5275967893       11.9914224928
  C         7.5094671901        8.0833464018       14.2395102976
  C         6.8329489227        5.9364591508       15.1643910404
  H         6.4350165485        4.5347981166       13.6566641855
  C        11.7703385832        6.0640141242        4.5208057919
  C         9.3046268507        6.2161213372        3.9286763592
  C        11.1236798038        3.5326668900        2.4879940163
  C        11.2704515319        2.1504737067        2.2794794311
  H        10.5317922109        2.6446771191       13.4330974025
  H        12.1300302772        3.3560112882       13.7182449173
  C        11.6142732881        1.6762649542       15.0577165628
  S         8.1856516421        9.9205138407       12.7501484706
  N         7.7980794395        9.4405356692       14.2752850124
  C         7.1515048066        7.3677247125       15.3657196404
  H         6.4607121658        5.2517864271       15.9126754246
  H        11.5618447441        7.0314138895        5.0882199556
  H        12.1033630663        6.2683138098        3.4565402031
  C        12.8463115666        5.2242988328        5.2246000643
  H         8.8162091292        6.6572032038        4.8050030345
  H         9.6379184236        7.0183836974        3.3785679400
  C         8.0928468341        5.4745550087        3.1535409596
  H        11.4168242760        4.3029404849        1.7655234020
  C        11.5367333554        1.4018749476        1.0058017684
  H        10.6216728526        1.6268730096       15.5858690458
  H        11.9918643387        0.6407529945       15.0582057980
  C        12.5378541149        2.4409997810       16.0568807504
  C         7.0252866787        8.1349077740       16.5768961017
  H        12.4822783135        4.8579366611        6.2122906221
  H        13.0445243947        4.2816691404        4.7092014388
  C        14.0718891076        6.0402366872        5.5394030853
  H         7.5198757120        4.7538308100        3.8198871640
  H         8.5342920194        4.8385888985        2.3909053789
  C         7.1257185998        6.4345209475        2.5001090296
  C        11.6565905450        0.0374441851        0.8864079825
  C        11.8526739191        2.1923460521       -0.1486663559
  H        12.1903159053        3.4481933566       16.0193824744
  H        13.6377079529        2.4961942208       15.7667152099
  C        12.4932361235        1.8944501645       17.4849169292
  H         7.3428619700        9.1412533477       16.6028802286
  C         6.8050134788        7.7645913082       17.9177129044
  H        13.9182841461        7.0161847860        6.0355300265
  H        14.6424950613        6.2456835116        4.6185769054
  C        15.0300626260        5.3566773744        6.4799614520
  H         6.7133582425        7.0875809620        3.2386623646
  H         7.6541008708        7.0676902981        1.7883886301
  C         6.0608608803        5.6387038197        1.7304966724
  N        11.4809219288       -0.9122466314        1.9060114247
  C        12.0311610050       -0.6017422031       -0.3280284517
  C        12.2433222343        1.6284001477       -1.4198447131
  H        11.9972701509        3.2629404007        0.0065697787
  H        11.6497818909        1.3377857885       17.6572739690
  H        12.5403435092        2.7135359807       18.1808927203
  H        13.4062357855        1.3405857826       17.7324993513
  S         6.4134989095        6.1381587319       18.4001850002
  C         6.7417800545        8.7948415115       19.0047384159
  H        14.8177956894        5.6430087276        7.5059136626
  H        14.8210266881        4.3406475095        6.5747581862
  C        16.5083771689        5.3845971497        6.0100827276
  H         6.3041088848        4.5816294523        1.5809675274
  H         6.1203106933        6.0109826756        0.7510760170
  C         4.6308320469        5.9151921502        2.4780360081
  S        11.7155972308       -2.3754755905        1.2582588798
  N        12.0102533650       -1.9754475966       -0.2544392713
  C        12.2752220888        0.1102435896       -1.5711225553
  H        12.4448969986        2.2374999699       -2.2309571060
  C         6.3007710453        6.8295837089       20.0853135578
  N         6.3722912500        8.1857539412       20.1404924806
  O         6.8836604937       10.0163214710       18.7570774363
  H        16.6671926161        4.8386957470        5.1383371229
  H        16.8818934678        6.3708673697        5.7757328619
  C        17.4179981131        4.8116184650        7.0948529085
  H         3.9088911809        5.2697290636        2.0195863539
  H         4.6816925700        5.6425900826        3.6059405421
  C         4.0159694223        7.3454241207        2.4344586436
  C        12.5935003083       -0.6005757282       -2.7663146614
  S         5.8626603610        5.9886720807       21.4481680828
  C         6.4525067526        8.9660321258       21.4107591317
  H        16.8783983247        4.6171338842        8.0485727336
  H        17.4789540589        3.7439300885        6.6929036212
  C        18.7828573117        5.5062114500        7.2414195973
  H         4.2314408327        7.8686891280        3.3910575129
  H         2.8889525438        7.2031707088        2.5010884695
  C         4.3860584763        8.2573540512        1.2720131216
  H        12.3158089580       -1.6540755941       -2.7001223158
  C        13.1017595891       -0.2172068583       -3.9963078314
  H         5.8012466754        8.6463300989       22.2112063837
  H         6.1273112008        9.9646457533       21.2042562978
  C         7.8335301446        8.9517151454       21.9543819775
  H        19.3600558075        5.0772151852        8.0710704712
  H        18.6952520822        6.5596265107        7.4513692739
  C        19.6525588039        5.3218211982        5.9918269201
  H         5.2451968483        8.7599945395        1.7055803706
  H         4.7254408850        7.7033502968        0.4128890191
  C         3.4883165346        9.3668255172        0.9256009266
  S        13.5419932367        1.3934988793       -4.5008555856
  C        13.2266174146       -1.3348930840       -4.9921146861
  H         8.2878905073        7.9249713793       22.2308142487
  H         7.9235084352        9.4665066111       22.9193677334
  H         8.5093184609        9.2603692669       21.1700263802
  H        19.1612100489        4.6843214916        5.2782972288
  H        19.8808460782        6.2806563296        5.4806433582
  H        20.5830815130        4.8304079697        6.2823925472
  H         3.0074513354        9.6887488680        1.8348424533
  H         4.0649253983       10.2200990886        0.4669327463
  H         2.6928177033        9.1227923394        0.2077890193
  C        14.0060915296        0.5847118711       -5.9682618587
  N        13.8450628171       -0.7745726691       -6.0185489270
  O        12.8322031292       -2.5381688458       -4.8097629277
  S        14.7725864511        1.4405521110       -7.4030127202
  C        14.0813204486       -1.5929402739       -7.2259688871
  H        14.1183708942       -2.7165733381       -7.1430100037
  H        15.1709881628       -1.4157997365       -7.4911513975
  C        12.9400278948       -1.2699930598       -8.1301350009
  H        11.9706150235       -1.5878922531       -7.7478509343
  H        13.1305398465       -1.8421829806       -8.9782492682
  H        12.9803322655       -0.2555384565       -8.4363455637
  H        -2.8310214758       15.0875466422       16.5051803466
  C        -2.9326772081       13.9927966411       16.5552734590
  H        -3.9033933008       13.7163467070       16.9089919701
  C        -1.7306046065       13.4987404973       17.3263085861
  C        -2.8018857278       13.4608306892       15.0560407429
  C        -1.7245544643       14.0554433240       18.7482113609
  H        -1.6834457302       12.4061357964       17.3550144045
  H        -0.7765393521       13.8012881446       16.8753749905
  H        -2.2415905946       12.5705856244       15.1495363121
  H        -3.8292945037       13.3147896090       14.6449989659
  H        -2.2394823779       14.2085864640       14.4128117767
  C        -2.2934042108       13.0994316577       19.7605611024
  H        -2.3373989804       15.0011786524       18.8442168114
  H        -0.6672840066       14.2939600432       19.0666043873
  C        -2.2606664418       13.6836462757       21.1383887738
  H        -3.3220805229       12.8833141148       19.3951226752
  H        -1.6988203950       12.2503536448       19.7690647997
  C        -1.1682521933       12.9977460306       22.0318010861
  H        -3.2727200733       13.4268256654       21.5079949704
  H        -2.1958681611       14.7790930719       21.0868246368
  C         0.1491266118       13.7882906133       22.2278187013
  H        -1.5818260831       12.7593537089       22.9899925877
  H        -0.8658364686       12.0196166907       21.6412003564
  C         1.3492872563       13.1338152905       23.0028230430
  H         0.4413021237       14.0146372131       21.2078162795
  H        -0.0596848689       14.6642772351       22.8248731810
  C         1.7450799291       11.7854696622       22.3705119890
  C         0.8544420445       12.3997582255       24.2518479908
  C         2.6429390426       13.9741604780       23.1345212107
  C         1.4886046103       10.7209369056       23.2314913688
  C         2.1817103419       11.3689049974       21.1002228130
  C         0.9269801783       11.0719304232       24.3865780564
  C         0.4690239251       13.0709059549       25.4908213811
  H         2.8939447134       14.1667748136       22.0777242378
  H         2.3972042555       14.9038849540       23.5572948377
  C         3.8531910985       13.2616202377       23.7932801599
  S         2.1067689838        9.2788290855       22.6155355840
  C         2.4514797970       10.0245555820       21.0490887942
  H         2.3103483755       12.1211243533       20.3055273210
  C         0.5588965927       10.4373969006       25.5509497314
  H         0.5213329696       14.1114897650       25.4987771660
  C         0.0298958929       12.4162678455       26.6302757900
  H         4.2484279281       12.5467926153       23.0834942284
  H         3.7526325877       12.5959143386       24.6910411233
  C         5.0117556973       14.1803259393       24.2563710271
  C         2.8886785484        9.2882263250       19.8030655361
  C         0.0788919318       11.0900642333       26.7177321741
  H         0.6014225528        9.3735944992       25.6238732775
  C        -0.2793701409       12.8867478050       27.8946537446
  H         5.8003364336       13.6868138988       24.8711173426
  H         4.6528478583       15.0335669088       24.8927999441
  C         5.6422348632       14.8523150428       23.0119775490
  C         2.8929165783        7.8905300467       19.7467926677
  C         3.2436990418       10.0690512652       18.5468294004
  C        -0.2784800980       10.5324003333       28.0531386236
  C        -0.5362577549       11.8865320376       28.7355034270
  S        -0.5735130272       14.4246715473       28.6210998760
  H         6.2731278539       15.6962627390       23.2949062943
  H         4.8589418007       15.1929688483       22.3389808901
  C         6.4758568993       13.8406684512       22.1312257466
  N         2.8725173219        6.9468084327       20.7392060425
  C         3.0587365386        7.3405278521       18.4928387729
  C         3.6214366985        9.4134659115       17.4044818119
  H         3.4031855836       11.0748501968       18.6594135494
  C         0.8288444824        9.7226174975       28.7407191778
  C        -1.5748332205        9.7202108254       27.8660349536
  C        -1.0165827095       12.2691367939       29.9630317644
  C        -1.0178868047       13.6067139628       30.0731679744
  H         7.5516990567       14.0939040504       22.2597957233
  H         6.3541009567       12.8403196024       22.4679651404
  C         5.9927802015       13.8309897544       20.6717124581
  S         2.7888659693        5.4224807121       20.1701892185
  N         2.9720333337        5.9310381988       18.5860018417
  C         3.2220552237        8.0089759017       17.2303491688
  H         4.1319186527        9.9626598577       16.6449589067
  H         1.1467608582        9.0237386705       27.9740815579
  H         0.3812498216        9.1649015046       29.6103813998
  C         2.0765701312       10.5498608574       29.1407579233
  H        -1.3249097388        8.8994283093       27.0920110185
  H        -1.7840376236        9.1508205225       28.7692698535
  C        -2.7599810269       10.4813957862       27.4755040590
  H        -1.1871006069       11.4855388867       30.6703210932
  C        -1.3113490650       14.3785880493       31.3643394830
  H         5.8776621538       14.8976786117       20.2856516383
  H         5.0674069942       13.3396010671       20.5974712962
  C         6.9797484059       13.1048706710       19.7608406256
  C         3.3276567847        7.3453835391       16.0024120351
  H         2.3751562136       11.3256875708       28.3917360800
  H         1.8541351499       11.2215651553       30.0213516947
  C         3.2119276309        9.7123192618       29.6760630131
  H        -2.5360786477       11.0312501680       26.5487497269
  H        -2.9584470487       11.2483074817       28.2070811564
  C        -3.9489428034        9.5717925055       27.3663137589
  C        -1.3979193217       15.7347464345       31.5127208042
  C        -1.7165820659       13.5405036674       32.5345229493
  H         7.9908965849       13.2461082225       20.1129934902
  H         6.7816862445       12.0675704480       19.7465667631
  C         6.9778104364       13.6631001335       18.3653478906
  H         3.0617835733        6.2525767278       16.0615234818
  C         3.6906444261        7.6622501561       14.7038302638
  H         3.8252230628        9.2354032086       28.9238358373
  H         2.7652835502        8.9054410329       30.2623958087
  C         4.0716296711       10.5837245552       30.5279167340
  H        -3.7265433864        8.9360139848       26.4818374634
  H        -4.0561398384        8.9656672040       28.2577637516
  C        -5.2708935338       10.2828821737       26.9708616006
  N        -1.1904116635       16.6727069053       30.4885768977
  C        -1.6884749729       16.3734677134       32.7516954377
  C        -1.8917513300       14.1479735874       33.7319029505
  H        -1.8499269146       12.4701187582       32.4323809126
  H         6.2574767728       13.2394013692       17.7100204625
  H         6.7405064268       14.7445560145       18.3320374847
  H         7.9526862143       13.5157398465       17.8502278260
  S         3.9959585476        9.2489484808       14.1377403865
  C         3.5970132141        6.6206729048       13.6672250574
  H         4.1115729697       11.6891234441       30.2473647183
  H         3.7031613540       10.4077458149       31.5372312120
  C         5.5418637177        9.9706829487       30.5411480399
  H        -5.2230061890       11.3342426509       26.6285491662
  H        -5.8471736028       10.2335243050       27.9409478787
  C        -6.2203801261        9.5202973500       25.9268064638
  S        -1.3704868334       18.1836682569       31.0816747107
  N        -1.6045696131       17.7198368345       32.6893534451
  C        -1.8663498381       15.6464093378       33.9169286921
  H        -2.1366009071       13.5289357060       34.6115343354
  C         4.1048516766        8.5693917571       12.5067511884
  N         3.9389532647        7.2023098670       12.4736365596
  O         3.4153702133        5.4214018806       13.8381351216
  H         6.1288161478       10.6559696380       31.0941635993
  H         5.9223053845        9.8691362326       29.5451670735
  C         5.4872647622        8.5310814980       31.1896177629
  H        -5.7008257814        9.0454418575       25.1750054035
  H        -6.7674245234        8.7497744703       26.4976836658
  C        -7.2317249958       10.5650421381       25.3512528036
  C        -2.1197216291       16.2574065295       35.1600999482
  S         4.8165957882        9.5173949852       11.1658943389
  C         4.0352542633        6.4109522261       11.2855136678
  H         5.9976764536        8.6884306306       32.0723026479
  H         4.4835069042        8.0564389700       31.4212832006
  C         6.2572175651        7.5412038723       30.3586001401
  H        -6.8967144589       11.1777407285       24.5727865596
  H        -7.6641547918       11.2774020335       26.0895077205
  C        -8.5442848082        9.9094883370       24.7479481657
  H        -1.8424651167       17.3079400618       35.2604236499
  C        -2.7357903148       15.9346128486       36.3612536969
  H         4.7397136849        6.8566958205       10.5772700442
  H         4.3802419596        5.4457399115       11.6040137117
  C         2.6953624055        6.2441143907       10.7399370082
  H         7.0731411095        8.0147420202       29.8509700194
  H         5.6290043668        7.0243650533       29.6203478573
  C         6.9618235896        6.5382529050       31.1984584315
  H        -8.9293554758       10.4888974328       23.9226422050
  H        -8.2570672046        8.9118766420       24.3561337770
  C        -9.6567939097        9.5604097505       25.7596016966
  S        -3.5291751038       14.4395416945       36.7551102740
  C        -2.7776980388       16.9608485686       37.3952721187
  H         2.7735657708        5.7759285007        9.7554012464
  H         2.0635022198        5.7442680499       11.4208565626
  H         2.3128135766        7.2571185363       10.5810392008
  H         6.2170258693        6.1197723232       31.9228002814
  H         7.7327552871        6.9930318795       31.8434144145
  H         7.2412755734        5.7214901698       30.5918925358
  H        -9.9536251191       10.3999603701       26.3821190858
  H        -9.2966673101        8.7310621929       26.3552392406
  H       -10.5919893433        9.1724724318       25.2853829597
  C        -3.9997652179       15.2812964120       38.1916491528
  N        -3.4869486390       16.5140606100       38.4104488645
  O        -2.1838584158       18.0088634883       37.3575218296
  S        -4.8617465576       14.4532280122       39.5244932626
  C        -3.7307772387       17.2426068889       39.6182070021
  H        -3.6417937830       18.2786135838       39.5294606130
  H        -4.7801932131       17.1419908728       39.9617415087
  C        -2.8691007540       16.8916339245       40.8697450734
  H        -2.5379828944       17.7481899592       41.4407878484
  H        -3.4289444043       16.3202345164       41.5833876706
  H        -1.9945605624       16.2971860899       40.5620309931
