352
i=
  H         2.9093060101        3.6249103573       12.6757275173
  C         2.9207145188        2.5385168808       12.4819005320
  H         2.0849868768        2.1987370755       12.9620057173
  C         2.7753003121        2.2286992067       10.9584980254
  C         4.1733683799        1.8957843367       13.2041502989
  C         4.0048083788        2.6536405971       10.0741391648
  H         1.8038630198        2.7293744419       10.6268080301
  H         2.6140414333        1.1436534743       10.7953523041
  H         3.8699350584        1.2207973452       13.9740251718
  H         4.8040855363        2.6941440706       13.6129413273
  H         4.7841174715        1.4318228194       12.4404097810
  C         4.7649911601        1.5459938094        9.2916698982
  H         3.6891887714        3.4260915800        9.3021315200
  H         4.7237719399        3.1183159997       10.7526241050
  C         5.7966357148        2.0834013859        8.3129335429
  H         3.9809991495        0.9639144279        8.7772894271
  H         5.3502130808        0.9865446684       10.0499067658
  C         6.9377210411        2.8541539178        8.9556263039
  H         5.3566480166        2.7500867497        7.5814992625
  H         6.1743064819        1.1839062906        7.8294297963
  C         8.2437508605        2.1676224898        9.2694713196
  H         7.2906027308        3.4327867560        8.1757601361
  H         6.6096550413        3.5976534146        9.7425702429
  C         9.5191206918        3.0715312685        9.3317343390
  H         8.4467636287        1.4522802035        8.4445246763
  H         8.1244425626        1.6528768491       10.2453626698
  C         9.1702823099        4.4540535004        9.8290329448
  C         9.9660521237        3.6351751168        7.9940301818
  C        10.6061603995        2.2630793866       10.0801709509
  C         9.4532568430        5.5101694781        8.9765420407
  C         8.7326062801        4.9645546358       11.1005161924
  C         9.9502512805        5.0033467841        7.8248206769
  C        10.3877542540        2.9042689761        6.9363122596
  H        10.2797198972        1.8873162127       11.1323291895
  H        10.7700353761        1.4296288753        9.4538252910
  C        11.9437261515        3.0651027607       10.2499946783
  S         9.0019873086        7.0991553088        9.6321028263
  C         8.5679554245        6.3241026206       11.1599623192
  H         8.5517878350        4.2676615082       11.9271307206
  C        10.3953818917        5.5556559301        6.6637693239
  H        10.4795886400        1.9089955858        7.0417912157
  C        10.7839489516        3.4653488944        5.7926906989
  H        11.6681899714        4.1229102455       10.4500240600
  H        12.6512633453        3.0187330126        9.4006425068
  C        12.8641809147        2.6524051561       11.4513007946
  C         8.2565124276        7.0801837838       12.3845065473
  C        10.8011214864        4.7828380041        5.5666887671
  H        10.4598050492        6.6289383182        6.5832456545
  C        11.1791357229        2.9465630383        4.5419857188
  H        13.7008334816        3.3747580370       11.4789391636
  H        13.3588050762        1.6592126562       11.2418158253
  C        12.2404467745        2.7015523576       12.8691961610
  C         8.1315298622        8.4996396120       12.5277652493
  C         7.7954197652        6.3521296855       13.6289502534
  C        11.2301897008        5.3715595416        4.1884202514
  C        11.4469420804        3.9548326129        3.6263134070
  S        11.2739055389        1.3123690599        3.9263389943
  H        11.6041347984        3.5832155976       12.9678512618
  H        11.6406527989        1.8217345213       12.9933048750
  C        13.2949726768        2.6870214150       13.8806770115
  N         8.2386553678        9.4403500955       11.5427836882
  C         7.7814074316        9.0872538239       13.7667235555
  C         7.4831733854        6.9138363240       14.8320441065
  H         7.9140263041        5.3075431317       13.7138428465
  C        12.5434463269        6.1359771383        4.4687390803
  C        10.1887361575        6.1273799830        3.3320904924
  C        11.5929156144        3.4155409668        2.2928043158
  C        11.5938589805        2.0416655671        2.2988058407
  H        14.1336211697        3.3805423681       13.6645122751
  H        13.7451465393        1.7002808280       13.7213679671
  C        12.8172234883        2.7063162406       15.3098610424
  S         8.1887723479       10.9009734437       12.2244044000
  N         7.8922074085       10.5045869162       13.7280181823
  C         7.5064322613        8.3682458971       14.9994141666
  H         7.3110103651        6.2655198525       15.6623378715
  H        12.4697231975        6.9739567274        5.1420083056
  H        12.8855064489        6.5707238324        3.5336830408
  C        13.7040531709        5.2615417466        4.9195857623
  H         9.8166739856        6.8026008769        4.0558239005
  H        10.6522481955        6.6686747570        2.4596101173
  C         8.9653220687        5.3485714400        2.8817656535
  H        11.7511427066        4.0487347764        1.4002732569
  C        11.8578624621        1.1939749099        1.0971782321
  H        12.4127735319        3.6596911272       15.6777481362
  H        11.9621395153        2.0308985985       15.2210970830
  C        13.8342358510        2.2691508133       16.3538325766
  C         7.2088105125        9.1346330345       16.2038437355
  H        13.3698097238        4.6612078154        5.7938072221
  H        13.9634317032        4.5674466354        4.1429943607
  C        14.8747825962        6.0939071479        5.2712085045
  H         8.5790614892        4.6918107470        3.6319566740
  H         9.2819558413        4.7019533844        2.0546203084
  C         7.8709257634        6.3322928680        2.3500739491
  C        11.9035085834       -0.2078163798        1.1266256392
  C        12.3081875265        1.8056503568       -0.1360608721
  H        14.8871262826        2.4534919592       16.0635200791
  H        13.6511057597        1.1650320911       16.3500094928
  C        13.4684245307        2.6824376615       17.7774228868
  H         7.3636760076       10.2404319715       16.1812380736
  C         6.8834871359        8.6988049569       17.4590012977
  H        14.6081344994        6.7952536503        6.0509305976
  H        15.1441715225        6.6737701576        4.3594352033
  C        16.0229706516        5.1471911094        5.6465951746
  H         7.5716581314        6.9773906620        3.2307969001
  H         8.3687642032        7.0452138582        1.6762743776
  C         6.6438786524        5.6532744334        1.6967488340
  N        11.5791122253       -0.9829247182        2.2605059790
  C        12.2899478812       -0.9434375711        0.0610412773
  C        12.5412559601        1.0379778501       -1.2680768421
  H        12.5232649319        2.8609347429       -0.2299251730
  H        13.2113835175        1.8407820380       18.3914403009
  H        12.6274556771        3.3144790059       17.7902844946
  H        14.3214223638        3.2638130837       18.1681755871
  S         6.4244492997        7.1069769826       17.9333650225
  C         6.9257513966        9.7046619414       18.5432971463
  H        15.5901522670        4.2306700195        6.0631887191
  H        16.6352051825        4.8347554076        4.8108853025
  C        16.9261511016        5.9377884183        6.5914142189
  H         6.1212095847        5.1167866766        2.5107495096
  H         7.0043932463        4.8369997067        1.0541920392
  C         5.7948854266        6.7418499568        1.0131134315
  S        11.7116480321       -2.5334694482        1.8462238861
  N        12.3214146694       -2.3254069585        0.3466308420
  C        12.5554614967       -0.4451866282       -1.2393497885
  H        12.8105433387        1.5093972062       -2.2501745928
  C         6.3485659895        7.7054104400       19.5784989913
  N         6.5098037634        9.0505692078       19.6939494861
  O         7.1020399820       10.9071523452       18.4039894736
  H        17.5152491285        6.7732613991        6.1670410951
  H        16.3175356713        6.3482842362        7.4621890539
  C        17.9196222595        4.9513423675        7.1159470823
  H         6.5072423412        7.2927433446        0.3808412152
  H         5.0647420246        6.2357964539        0.3703043066
  C         5.0428663335        7.6513171681        2.0142239144
  C        12.7881740169       -1.3243268130       -2.2913348015
  S         5.8767309700        6.7457658336       20.9587998776
  C         6.5810421360        9.7390590780       20.9730416708
  H        17.3811559742        4.1706317991        7.5887426758
  H        18.5634068817        4.4281167948        6.3488657057
  C        18.8581789710        5.8729300523        7.9128079998
  H         5.6571739680        8.1368489087        2.7615698495
  H         4.4622564624        6.9257627488        2.7343178877
  C         4.0230040427        8.7349640640        1.4514768806
  H        12.6182505252       -2.3280893533       -2.0936197589
  C        13.2119773276       -1.0759395152       -3.5995674351
  H         5.8611119014        9.2838056030       21.7177730826
  H         6.1525506127       10.7053310831       20.8516975706
  C         7.9596949582        9.8234950874       21.6649522686
  H        19.2066592795        5.3565551553        8.8160747133
  H        18.2867423199        6.6486010292        8.4116852975
  C        20.1059844991        6.3098161276        7.0680820659
  H         3.5895886102        8.5703398552        0.4270490297
  H         3.1514329935        8.6437396158        2.0619179973
  C         4.4874217212       10.1646487957        1.5914215387
  S        13.7500133352        0.4029819888       -4.3650540706
  C        13.1538028921       -2.2006548177       -4.5340357428
  H         8.1485199499        8.9409013602       22.2813306175
  H         8.0441642186       10.7622711052       22.1885509456
  H         8.7285393994        9.7531774200       20.9754794535
  H        19.8843091563        7.0868596416        6.3781200330
  H        20.8846348489        6.8266460846        7.6740358978
  H        20.6725625789        5.5282462728        6.5333211319
  H         5.0078688476       10.3923504712        2.5135178305
  H         5.2078745833       10.4054749314        0.7240863509
  H         3.5714627592       10.7555368916        1.6679475587
  C        14.0645952402       -0.5465932760       -5.8101214470
  N        13.5887356934       -1.8544500728       -5.7465374201
  O        12.6496428078       -3.3085517530       -4.2482783239
  S        15.0594595033       -0.0913694129       -7.2904195938
  C        13.6679271526       -2.6856647578       -6.9469709717
  H        13.4295725077       -3.6954820247       -6.6296431808
  H        14.7174287358       -2.7320605821       -7.3059289860
  C        12.5764137298       -2.3593162635       -8.0584397342
  H        11.6042231065       -2.7435641273       -7.6860519580
  H        12.8673760384       -2.9117767856       -8.9828283142
  H        12.4232096010       -1.3276994502       -8.2950646945
  H        -2.2804006152       14.6153813786       16.4649614975
  C        -3.1747079226       14.2032163353       16.8775085370
  H        -3.9414554840       14.9644673448       16.8149247870
  C        -2.8637539832       13.8676398421       18.2840550802
  C        -3.5216481861       13.0387750959       15.8900308969
  C        -1.8120995004       12.8376719317       18.5892297673
  H        -2.4391120565       14.7451999399       18.7633741902
  H        -3.8437834927       13.6554316716       18.7944813278
  H        -2.7704530214       12.2223839739       15.9402824580
  H        -4.5080332673       12.5913299095       16.1313437520
  H        -3.5747322669       13.3753098877       14.8643060584
  C        -0.9766807144       13.1254259868       19.9070614701
  H        -1.1709447661       12.9582362290       17.7549935165
  H        -2.2577210529       11.8908873850       18.6491796645
  C        -1.8780477429       13.3541996906       20.9629302991
  H        -0.2074001793       12.3393334709       20.1402544492
  H        -0.4425808658       14.0577855874       19.7002350851
  C        -1.2328326220       12.9452588968       22.2783844393
  H        -2.8604525366       12.8319928958       20.7696130779
  H        -2.1063622414       14.4168767128       20.9513408972
  C        -0.0553115137       13.8348026237       22.6879588883
  H        -2.1238126330       12.9959669565       23.0238628839
  H        -0.9320409317       11.8646819406       22.2882137066
  C         1.2017814549       13.1583095815       23.3151087542
  H         0.2928259729       14.4160099202       21.8233105178
  H        -0.4650330547       14.5953764831       23.3754757710
  C         1.6337038965       11.8334505448       22.6545884593
  C         0.7272587239       12.4419743217       24.5711549729
  C         2.4044789271       14.0857820475       23.4165420818
  C         1.3322147418       10.7068899223       23.3859698882
  C         2.2444255604       11.5688076520       21.4508588784
  C         0.7901311558       11.1006740010       24.6478695091
  C         0.2890529814       13.0726027295       25.7349216069
  H         2.6087361842       14.4105950094       22.3929233551
  H         2.0524405557       15.0058797673       23.9338017790
  C         3.5988027023       13.4869905845       24.1015388479
  S         1.8327191911        9.2278403366       22.6232055401
  C         2.3698139185       10.1868294271       21.2526762925
  H         2.6502672631       12.3416786024       20.8181343438
  C         0.3439498203       10.4601533336       25.7682843554
  H         0.3573588762       14.1424852092       25.7244250466
  C        -0.1276091880       12.4147755054       26.8921180794
  H         4.0133758214       12.7877109606       23.4778531184
  H         3.2113623186       12.9919240851       24.9878441830
  C         4.6783554556       14.5676805146       24.4900455434
  C         2.8626916091        9.5034413723       19.9521271803
  C        -0.1088909620       11.0699311927       26.9245136084
  H         0.4204238829        9.3654375482       25.7771458399
  C        -0.5231547461       12.8156276710       28.1555996124
  H         5.4632101668       14.2126724712       25.2712800628
  H         4.0959026463       15.2285611760       25.1394272126
  C         5.2601392590       15.3288153813       23.2751565752
  C         2.7689635172        8.1547706950       19.6595950104
  C         3.3075071633       10.4219519028       18.7748842606
  C        -0.5051951641       10.4296911625       28.1705409568
  C        -0.7194360311       11.7334162059       28.9664405257
  S        -0.8573806944       14.2838744278       28.9319663793
  H         5.7667370279       16.2306389784       23.5287912485
  H         4.3942334492       15.6506967176       22.6495420808
  C         6.1503239564       14.3238646624       22.4212619990
  N         2.3842722726        7.1885629189       20.5425377536
  C         2.9620104289        7.7081709901       18.3691986049
  C         3.5500372217        9.9324724609       17.4445653822
  H         3.5941072270       11.4914488764       18.9514466601
  C         0.6406492698        9.7204066209       28.9252917317
  C        -1.7970781116        9.6734077076       28.1673711803
  C        -1.0416971220       12.1272407303       30.2980600607
  C        -1.1626555643       13.5215308426       30.4453274604
  H         7.1268645932       14.7922559731       22.2689055316
  H         6.3067011001       13.4558650025       22.9645768427
  C         5.5959117488       14.2191351474       20.9162413204
  S         2.4435078367        5.7344424595       19.7507841664
  N         2.8819384098        6.3377596357       18.3259929323
  C         3.2196137733        8.5088025820       17.2328145721
  H         3.8029483514       10.6500048839       16.7568017376
  H         0.9305578147        8.8328805903       28.3950654915
  H         0.2296708361        9.2918230535       29.8869559461
  C         1.8424951408       10.5433973773       29.4624637043
  H        -1.5397128849        8.7312572430       27.6152373656
  H        -1.9891196472        9.4554875318       29.2240632277
  C        -2.9296589623       10.4679043382       27.5307053862
  H        -1.2540175335       11.4273894094       31.0094270187
  C        -1.5540032373       14.2684039805       31.6990971975
  H         5.6407554749       15.1080621363       20.3222109507
  H         4.5501932728       13.8781028819       21.1981990570
  C         6.3035898593       13.3048226107       19.9876185007
  C         3.4469579496        7.7990128569       16.0085576844
  H         2.2140629283       11.0933024430       28.6259666154
  H         1.5147576440       11.3539147015       30.1150198342
  C         2.9139702718        9.6559337204       30.1974952888
  H        -2.7238928653       10.8699852604       26.5947603519
  H        -3.0399194004       11.4280126330       28.1441723407
  C        -4.1617894763        9.5898087741       27.4865842327
  C        -1.6575318309       15.6864501595       31.8609640662
  C        -1.9203272690       13.5301267181       32.9093103533
  H         7.1463118493       12.8590130972       20.5847069246
  H         5.5988958676       12.5559654927       19.6930149178
  C         7.0119124564       14.0568449885       18.8523853206
  H         3.3508327020        6.6987821976       15.9837237569
  C         3.8476659588        8.2040217984       14.7645269865
  H         3.2265355063        8.9307077142       29.4483889186
  H         2.4850655687        8.9967292356       31.0670115158
  C         4.2051289309       10.5438553392       30.5458864062
  H        -4.1052755526        8.8016605798       26.6960152103
  H        -4.3306965145        9.1141045099       28.4717901330
  C        -5.3809736763       10.5429341839       27.1645747647
  N        -1.2677256795       16.5507131269       30.8803866574
  C        -1.8542180596       16.3140448292       33.0337066378
  C        -2.3353982398       14.2007087307       34.0729432439
  H        -1.9888962068       12.4576990070       32.8971873400
  H         6.4379748752       14.4398085611       17.9582393368
  H         7.6046349016       14.8633466950       19.1881710706
  H         7.6432914546       13.3379484433       18.3994689876
  S         4.1154608604        9.8206198248       14.3456047597
  C         3.9790081831        7.1594391912       13.7163644924
  H         4.0922559563       11.4646591205       29.9858472438
  H         4.2014134555       10.9838592502       31.5700613151
  C         5.5141664723        9.8404297884       30.4976503943
  H        -5.4624310780       11.2867304302       27.9064790426
  H        -6.2289874094        9.8501874723       27.2909754958
  C        -5.2811386956       11.2172888535       25.8779775674
  S        -1.1330392837       18.0642442706       31.4550106544
  N        -1.6446063526       17.6786317362       32.9334760603
  C        -2.1476304211       15.6771023866       34.2617962831
  H        -2.6430669528       13.6204801327       34.9257555782
  C         4.6820161616        9.1152860266       12.8368540943
  N         4.5922523167        7.7587504700       12.6854615123
  O         3.8699172507        5.9604082298       13.9484521428
  H         6.3336224617       10.2655976851       31.1231670287
  H         5.9223694503        9.8838902880       29.5185361358
  C         5.4784141906        8.4176722312       31.1557508614
  H        -4.6152241495       12.1038911225       25.9731747220
  H        -4.8628669345       10.6414793608       25.0984344588
  C        -6.6864524227       11.6642632555       25.5394186945
  C        -2.4341117833       16.4909210232       35.4042540853
  S         4.9378706125       10.0791148404       11.3693614661
  C         4.7679519761        6.9444071213       11.4735343221
  H         5.1481055142        8.4742071173       32.1572681246
  H         4.7991286124        7.8744761148       30.5200582691
  C         6.7822923872        7.6402365429       31.1341804386
  H        -6.5991016877       12.4581528880       24.8548676812
  H        -7.2789513535       12.1656309126       26.3340952049
  C        -7.5239962478       10.6864970044       24.8437538848
  H        -2.2601707636       17.5484378498       35.2008350339
  C        -2.9975633993       16.1787991262       36.6315067123
  H         5.6612162482        7.3207240782       10.8952810778
  H         5.0613303362        5.9527110363       11.6587681679
  C         3.5647316701        6.9958271955       10.6324360272
  H         6.8708465722        6.8514834840       31.8909823524
  H         7.5664559342        8.4044930381       31.3332205171
  C         7.0221041646        6.8268443969       29.8208845045
  H        -7.9522028295       11.2512405568       24.0337231564
  H        -7.0031231010        9.8693410362       24.4026447722
  C        -8.8355933727       10.2270897845       25.4898330150
  S        -3.6093753219       14.6592556895       37.1858645515
  C        -3.1361210555       17.2631641451       37.6371004349
  H         3.9011771446        6.7728724101        9.6164119047
  H         2.9837399113        6.1555520232       10.9114258536
  H         3.0008823357        7.9066991064       10.7213778837
  H         6.4403710041        7.3509138958       29.0194479237
  H         6.5805851647        5.8525011390       29.8101962652
  H         8.0866410004        6.7271860941       29.6195251385
  H        -9.4720412073       11.0443852669       25.9113794629
  H        -8.6761871364        9.4997640653       26.2605682902
  H        -9.4355336295        9.8078214170       24.7554139221
  C        -3.8935197316       15.4635150099       38.7820828459
  N        -3.6885809182       16.8196394793       38.7710602789
  O        -2.8288190947       18.4307957992       37.3850154541
  S        -4.8239299549       14.7472619046       40.1786655011
  C        -3.9162530269       17.7180198070       39.8974422251
  H        -4.1283648786       18.7628126888       39.5907071746
  H        -4.8447393861       17.3922983477       40.3947106147
  C        -2.6280724389       17.6119577730       40.8338837203
  H        -2.8446643744       16.8921436882       41.5885088029
  H        -1.6712669707       17.3368402167       40.3884732153
  H        -2.4316157396       18.5355233589       41.3345790932
