352
i=
  H         3.0634483562        2.0548286796       14.0153303511
  C         3.6291787036        1.9076744509       13.1047831348
  H         3.7195540811        0.8638066212       12.9650175452
  C         2.8619134287        2.4764313395       11.9402185203
  C         4.9220559052        2.6025027210       13.3174756280
  C         3.6563304635        2.5513657596       10.5930308792
  H         2.5088506303        3.4399212970       12.3099494559
  H         2.0135580233        1.8349566311       11.7857357324
  H         5.6957649106        2.0167745474       12.8295698909
  H         5.2262740194        2.6407362991       14.4602022226
  H         4.8637621245        3.5955939718       12.9416177850
  C         4.4937247239        1.3152265993       10.2456507858
  H         2.8955460714        2.7329825572        9.7657390468
  H         4.2627353234        3.4324508132       10.6229967165
  C         5.1499215513        1.2986549880        8.8113570181
  H         3.7762357314        0.3920791002       10.1011829292
  H         5.2217757112        1.0848507069       10.9926641745
  C         6.3128565902        2.3050510791        8.8105442099
  H         4.4497083587        1.6340030342        8.0585103927
  H         5.5151571636        0.2316135614        8.6493335703
  C         7.6131546477        1.5129445561        9.2466642986
  H         6.4113253729        2.6208224739        7.7465848396
  H         6.1658471632        3.2972321938        9.3537345016
  C         8.8711372438        2.4448651487        9.4653436803
  H         7.7359552536        0.7785271545        8.3799516096
  H         7.4564198944        0.7965706803       10.1281644519
  C         8.6048417888        3.7958025128       10.1038653346
  C         9.4295198833        3.1317179210        8.2252292388
  C        10.0478270599        1.7099458163       10.2368745228
  C         8.9036579471        4.8864654483        9.3414656298
  C         8.3057920796        4.1918228464       11.4116273885
  C         9.3227525648        4.4980908973        8.0799289529
  C        10.0315432081        2.4742819642        7.1130709443
  H         9.5977070919        1.4225237842       11.1800758962
  H        10.2581236254        0.8118442566        9.7483044197
  C        11.3909452699        2.4910994131       10.5081619046
  S         8.5547759227        6.4080479926       10.0687694452
  C         8.2234020362        5.5317841216       11.5213580095
  H         8.0689802134        3.3456609970       12.1064985663
  C         9.7417451908        5.0180189645        6.8988548293
  H        10.0548615290        1.4546031565        7.1867060623
  C        10.3838652351        3.0836861341        5.9687100104
  H        11.3186613303        3.5617613872       10.6776716723
  H        12.0918722296        2.4636833640        9.6432020881
  C        12.3962681734        1.9025894707       11.5173974963
  C         7.7154334159        6.2453223996       12.7631506294
  C        10.2692292640        4.4034701815        5.7780740121
  H         9.5568863125        6.1143024101        6.9622748991
  C        10.9085958592        2.6852082369        4.7584979000
  H        13.3986392663        2.0177628808       11.0725011533
  H        12.1877738449        0.8818253437       11.6148286433
  C        12.3050137786        2.5821276035       12.8954905928
  C         7.6744094706        7.6182643980       12.9891216022
  C         7.0344614068        5.4387446474       13.8329591434
  C        10.6284395922        5.0697243666        4.5318864173
  C        10.8966093783        3.7398065421        3.8675225183
  S        11.4698888690        1.1691239643        4.0898458249
  H        13.2639076667        3.1682916923       13.0992687850
  H        11.4901619950        3.3044706856       12.9410327036
  C        12.2663425591        1.6000140264       13.9779799180
  N         8.2692560598        8.5918137600       12.1629290160
  C         7.1710777691        8.2122535201       14.1328357611
  C         6.6366976545        5.9996811864       15.0379530181
  H         6.9556018780        4.3223075099       13.7182984028
  C        11.9251042656        5.8976608127        4.7001580531
  C         9.4665057042        5.8791117351        3.8992974665
  C        11.2477522359        3.3413570399        2.5729445818
  C        11.5481346620        1.9819187999        2.5344725858
  H        13.0745382359        0.8501045612       13.9180268930
  H        11.2675567783        1.0402355773       13.8747522273
  C        12.1647177577        2.2752947676       15.2798156648
  S         8.0280355268       10.0435374672       12.8171711248
  N         7.3496993100        9.5821173146       14.1813505558
  C         6.7291062411        7.4646319929       15.2760418069
  H         6.0240319734        5.4540207606       15.7290132240
  H        11.7899394182        6.7588485864        5.3601816575
  H        12.2380271043        6.3030612657        3.7159789331
  C        13.2169757149        5.1692114679        5.1738979040
  H         9.1449373738        6.6725655695        4.6290779060
  H         9.8370765635        6.3956964630        3.0451100302
  C         8.2742223967        5.1320649281        3.5064361617
  H        11.3015019244        4.0811034004        1.7806568481
  C        11.9948560615        1.2100610331        1.2720012397
  H        12.2267607995        3.3977776811       15.1206496788
  H        11.1500473595        2.0617347896       15.6309326223
  C        13.1607400040        1.7983736323       16.3297297819
  C         6.5800734382        8.1762888772       16.5158929171
  H        12.9066661203        4.5403047442        5.9643957732
  H        13.6583081984        4.5362238504        4.3958827232
  C        14.3681438585        5.9956995891        5.7257156814
  H         7.7677509507        4.7108331341        4.2953840874
  H         8.4193657890        4.2898668644        2.8156856544
  C         7.2664677255        6.0176165790        2.8661403880
  C        12.0733302147       -0.2023781038        1.0824884135
  C        12.1994137469        1.9680576634        0.0151963141
  H        14.0401453235        2.4901719338       16.2007554864
  H        13.5675424606        0.8656486862       16.0834735116
  C        12.5175075092        1.9301443020       17.7105804028
  H         6.5754340356        9.2610515083       16.3443818603
  C         6.3098996782        7.7797158772       17.8148943972
  H        14.0006593838        6.8051819728        6.2759899879
  H        14.8435150916        6.3428693226        4.8587352480
  C        15.3294445373        5.3032501512        6.6357039627
  H         6.6867758696        6.3981960391        3.7259454596
  H         7.6310307906        6.9715965888        2.4794332295
  C         6.3218915766        5.3892535399        1.8132149625
  N        11.7730709135       -1.1291190754        2.0884121713
  C        12.3131287674       -0.8570806689       -0.1415679114
  C        12.5217835821        1.3449522492       -1.2156068346
  H        12.3838010239        3.0866735768        0.0752484908
  H        12.5772007526        2.9638845668       18.0762711336
  H        13.0642508492        1.4341538493       18.4217033611
  H        11.4328213867        1.6884992062       17.7150911610
  S         6.0010324743        6.2463771843       18.3866850279
  C         6.4170310964        8.8747959232       18.8528991819
  H        15.3416982401        5.6940291680        7.6893684694
  H        15.0769196749        4.1773676749        6.8383168825
  C        16.7833561239        5.2768172879        6.1999412028
  H         5.6930949567        4.7235810418        2.3664104349
  H         6.8905708609        4.7714187641        1.1111409708
  C         5.6083817382        6.3781767948        0.9374484775
  S        11.8167052199       -2.6261070029        1.4432308323
  N        12.2310339802       -2.2649181302       -0.0701534690
  C        12.5636721652       -0.1548213519       -1.3551770294
  H        12.6225353003        1.9442325898       -2.1122442139
  C         5.9850909001        7.0008042018       20.0025614981
  N         6.2986608559        8.3233712796       20.0561990235
  O         6.6328882625       10.0543029277       18.6256585873
  H        16.8840398492        4.8726302443        5.1920545270
  H        17.1890666832        6.2856385294        6.2761899941
  C        17.9232684599        4.5674668047        7.0110399075
  H         6.2183852356        7.0738184674        0.4118902824
  H         5.0033749097        5.8218846747        0.2316867719
  C         4.8426401547        7.3693172411        1.7914319266
  C        12.7054800424       -0.8900176089       -2.5530893639
  S         5.7370718318        6.0415070541       21.4632449882
  C         6.4605634301        9.2104477827       21.2007854772
  H        17.6274340802        4.4395071744        8.0502808671
  H        17.9622726517        3.5495395390        6.6448177848
  C        19.2762691653        5.2337963431        6.9863335250
  H         5.5599247680        7.8189815034        2.5279759925
  H         4.1857036638        6.8168737279        2.3386337623
  C         4.2483096471        8.5285848442        1.0040611036
  H        12.3420772107       -1.8833901752       -2.4346817774
  C        13.2087852619       -0.5035469037       -3.7463845113
  H         5.7020115172        9.0092375954       22.0429722616
  H         6.2176687600       10.1986505955       20.8402668038
  C         7.9207324774        9.1609275260       21.7411164256
  H        19.9576684693        4.6497983566        7.5879798684
  H        19.2132455594        6.3082558899        7.3105717161
  C        19.8300861000        5.3990738574        5.5689071055
  H         5.1266335411        9.1664087478        0.7446039126
  H         3.8539521217        8.1844152219        0.0800344311
  C         3.2189471916        9.3411760919        1.8179319202
  S        13.8199231882        1.0670021810       -4.1305654967
  C        13.3942990086       -1.5450429544       -4.8018525021
  H         8.0535317994        8.2017165952       22.3085558151
  H         8.2260774794        9.9365037488       22.5642015835
  H         8.6098874438        9.1628385675       20.8928236172
  H        20.1419228056        4.3701015793        5.2865852619
  H        19.0970377479        5.8188866328        4.8909098391
  H        20.6756024649        6.0066017771        5.6216429230
  H         2.7551976870        9.9645524557        1.0652724415
  H         2.4090786076        8.6749813034        2.1900249970
  H         3.6619531320        9.8791441479        2.6733337116
  C        13.9753738044        0.3927661757       -5.7151732022
  N        13.8863063085       -0.9249387845       -5.8264557033
  O        12.9778453257       -2.7489441612       -4.6647193598
  S        14.4171989671        1.2839317446       -7.2095905578
  C        14.1461531722       -1.5984845149       -7.0746706665
  H        14.3744534036       -2.6142314860       -6.7789767804
  H        14.9407691825       -1.1782898334       -7.6668895457
  C        12.9486855684       -1.7597584231       -8.0424234064
  H        11.9839221761       -1.4599066427       -7.5873556144
  H        12.9238293016       -2.8413087786       -8.2697157533
  H        13.0609740987       -1.1408250933       -8.9721254159
  H        -3.3711284673       14.9702757742       16.1105978782
  C        -3.4774900572       14.1025676005       16.7447546122
  H        -4.5502493574       14.0919598006       16.9099043186
  C        -2.6502276638       14.2578425055       18.0142145333
  C        -3.0131640616       12.8247480340       16.0114123855
  C        -2.9353379918       13.1031287359       19.0519861933
  H        -1.6377073148       14.1862881482       17.7343757222
  H        -2.7773962760       15.2653974487       18.3731717850
  H        -3.7559085572       12.0358355848       15.9631511931
  H        -2.8654215105       13.0395514633       14.9465368643
  H        -2.2504255303       12.2276858916       16.4646881429
  C        -1.8023402345       12.7397186883       20.0536631550
  H        -3.3080850409       12.1179675116       18.7481952065
  H        -3.7407275566       13.4170966152       19.6993684486
  C        -2.1596777858       13.0570269683       21.5527634372
  H        -1.5305194837       11.6829461987       19.9890700975
  H        -0.9526877435       13.3721725248       19.8330923855
  C        -1.2082895709       12.3757549252       22.5379402090
  H        -3.1237654447       12.6306952054       21.7054026230
  H        -2.3860341611       14.1557828631       21.7978481360
  C         0.0472590558       13.2915755561       22.7340066591
  H        -1.7530903247       12.2967988888       23.4789077473
  H        -1.0360423658       11.3268758797       22.2926099564
  C         1.2485428449       12.6324915866       23.5139973630
  H         0.4980175072       13.5583360038       21.7993776505
  H        -0.2330732745       14.1784238960       23.2722946773
  C         1.4475521455       11.2501089841       22.7444670374
  C         0.8648396056       11.8862828483       24.8260724971
  C         2.4571048084       13.5271907675       23.5963823206
  C         1.3199486614       10.1520367555       23.5413019405
  C         1.5956604325       10.8879373216       21.3794401636
  C         0.8661105437       10.5380260327       24.8303732838
  C         0.2974524148       12.4215245630       25.9579863245
  H         2.5628681478       14.1212365804       22.7825691498
  H         2.3570334062       14.2353504038       24.4509297774
  C         3.7964192018       12.7636789179       23.8913827501
  S         1.7189476013        8.6683698126       22.8045916325
  C         1.8674800304        9.5650175743       21.2729476618
  H         1.6861280067       11.5954812946       20.5820644751
  C         0.4611212675        9.9434685748       26.0026660339
  H         0.1380821199       13.5106361935       25.8496895029
  C         0.0295058519       11.8374850380       27.1344728882
  H         4.0382846067       12.0915026879       23.0817431955
  H         3.6490125174       12.0885981986       24.7133434362
  C         4.9526262729       13.6632647546       24.3464707614
  C         2.2551387781        8.8856920558       19.9864426761
  C        -0.0122602482       10.5077478207       27.1921914652
  H         0.5604017387        8.8190822166       25.9836450338
  C        -0.4120794582       12.2164380467       28.4215132314
  H         5.7041653757       13.0398990002       24.8482894904
  H         4.5997686452       14.3572322885       25.0568496666
  C         5.6027818640       14.4588804825       23.1979752236
  C         2.2423500740        7.4953148731       19.8025909171
  C         2.7517480310        9.7567784737       18.9073645523
  C        -0.3815970882        9.8086391003       28.4605337323
  C        -0.6355019239       11.1047573177       29.2210241374
  S        -0.6758593734       13.7369682030       29.1856079540
  H         6.1093974941       15.3314061441       23.5906914268
  H         4.8890654992       14.7654386145       22.4310906418
  C         6.5471688371       13.6320083266       22.4065916179
  N         1.9270363209        6.5511319415       20.7659893658
  C         2.5716323653        6.9631502491       18.5632858632
  C         3.0507058592        9.2269599990       17.6282662759
  H         2.9438207499       10.7981460507       19.0996800165
  C         0.7161473839        9.0097453729       29.2046470040
  C        -1.6883581316        9.0315614587       28.3707396134
  C        -1.0486739981       11.4785335012       30.5421660072
  C        -1.1326642273       12.8337441759       30.6090317564
  H         7.5274801539       13.9110838562       22.5560243394
  H         6.5783856108       12.5890364044       22.7812234682
  C         6.2862521851       13.7404240559       20.9233263779
  S         2.2495400750        5.0973154337       20.1261360876
  N         2.5155096464        5.5420991236       18.6072924100
  C         2.9409897234        7.7565384185       17.4480998820
  H         3.3999439404        9.9186605587       16.8602143371
  H         1.0324639767        8.1953516292       28.6359125258
  H         0.4243582864        8.7273342215       30.1922815798
  C         1.9743225851        9.8787535455       29.5278913294
  H        -1.5719742513        8.1961133304       27.6226856586
  H        -1.8418496781        8.4772463401       29.3323531232
  C        -2.9303561340        9.8301019135       27.9514932300
  H        -1.3322041891       10.6954432490       31.2924280839
  C        -1.3881704782       13.5824756748       31.8881259444
  H         5.9663202005       14.7417585016       20.6586976122
  H         5.6852496790       12.9533484101       20.5847077008
  C         7.6140110981       13.5681222052       20.2703287665
  C         3.1904195199        7.1655773313       16.2048982083
  H         2.3188188467       10.4722683371       28.7254134774
  H         1.6425536087       10.6457688082       30.2514660295
  C         3.1623982904        9.1575741801       30.1691551549
  H        -2.7940421092       10.3846472105       27.0525586426
  H        -3.1173812278       10.5919037435       28.7159204473
  C        -4.0573200287        8.8394916802       27.8398165695
  C        -1.4598043640       14.9247878057       32.1386153165
  C        -1.8426429383       12.8096092379       33.0722432777
  H         8.4277713601       14.2441867234       20.7007873224
  H         7.8897423897       12.5537269554       20.5361028277
  C         7.6122326941       13.9580365701       18.8020954898
  H         3.0115081195        6.0674474213       16.1485667783
  C         3.5034264472        7.6717669091       14.9608747085
  H         3.4870456473        8.1858230196       29.7315609443
  H         2.9037239345        8.7063440890       31.1566101050
  C         4.4184976505        9.9917216397       30.1719653828
  H        -3.8110605552        8.0049101759       27.1732346398
  H        -4.1410587815        8.3390183837       28.7827649465
  C        -5.4657109820        9.4471992988       27.4927059035
  N        -1.2195875555       15.9782530814       31.2037612351
  C        -1.8625668809       15.5031674962       33.3386798049
  C        -2.1214161375       13.3379217183       34.3120709001
  H        -2.0126890653       11.8058446098       32.9661375330
  H         8.2838664814       14.8289851740       18.6688139009
  H         7.9672471563       13.1655907232       18.1851010531
  H         6.6098216489       14.1891941930       18.4606230685
  S         3.6759189484        9.3196789248       14.4349055234
  C         3.6974483769        6.6763435354       13.8600483841
  H         4.5093660786       10.8029001262       29.4325762986
  H         4.2931461586       10.5244693389       31.1074748582
  C         5.8323442523        9.2335757099       30.2527973418
  H        -5.7052965750       10.1740493460       28.2809386888
  H        -6.2464401060        8.6931189254       27.6482153904
  C        -5.7776833521       10.0510426403       26.1170688042
  S        -1.3595852674       17.4069827713       31.9031586533
  N        -1.8529289798       16.9059656485       33.3205099253
  C        -2.1801432095       14.8177643297       34.5036869315
  H        -2.3805371220       12.6743971965       35.1894209265
  C         4.1348442096        8.6521520462       12.8301460477
  N         4.1741437555        7.2936409629       12.7332620305
  O         3.6884012734        5.4831995767       14.0345995009
  H         6.5882998867        9.9787662843       30.5375126405
  H         6.1283847860        8.9220896793       29.2364414151
  C         5.8128662952        8.0579345224       31.2281663382
  H        -5.1302877499       10.8568359620       25.8886361177
  H        -5.6048100723        9.3384827640       25.3191681153
  C        -7.1701403830       10.6977288468       25.8360918292
  C        -2.5727036577       15.5013202033       35.6759439135
  S         4.5843611057        9.7991854320       11.5312591478
  C         4.3358833484        6.5583317521       11.4314390314
  H         6.1069001268        8.4817130976       32.1580113846
  H         4.8482957682        7.5664695670       31.2761208323
  C         6.7052949409        6.9244875067       30.7547827120
  H        -7.1031920951       11.1834803929       24.8647692970
  H        -7.5086277292       11.4202136488       26.5835435867
  C        -8.1539655074        9.5865254177       25.8106179391
  H        -2.1509863408       16.4696009627       35.7901764444
  C        -3.0248214993       15.0872049635       36.8822449984
  H         5.2431619394        7.0077150217       10.9517539744
  H         4.6309599225        5.4957714040       11.6280156852
  C         3.0779747512        6.6227588921       10.5954873464
  H         7.6672256417        7.4342954579       30.4744304933
  H         6.4079998492        6.4559430977       29.7843054722
  C         6.8580979345        5.7709462262       31.7661717725
  H        -7.7775469614        8.7490855097       25.1777671275
  H        -8.4475272971        9.2279642029       26.7790244840
  C        -9.5213617465       10.0391577781       25.2966581377
  S        -3.6523610602       13.5459139742       37.4494136042
  C        -3.0874925948       16.1545061438       37.9271716511
  H         3.1615244576        7.3936385502        9.8432844167
  H         2.7935029262        5.6305249576       10.2182768560
  H         2.2358520125        7.0053480793       11.2136860588
  H         7.5662152995        6.1351078835       32.5056686431
  H         7.3836506614        5.0461423619       31.1660008585
  H         5.9265667467        5.2996653099       32.1042014464
  H        -9.6120767985       10.0902777086       24.2423713910
  H        -9.6942217006       11.0802075561       25.5405696055
  H       -10.3334652133        9.4663476992       25.6572936949
  C        -4.1472842637       14.4076707873       38.9003994065
  N        -3.8260030207       15.6673240607       38.9310904494
  O        -2.7127232984       17.2976550843       37.8990380147
  S        -4.9595704087       13.5874326623       40.3073457492
  C        -4.2982840406       16.5466555591       40.0029906364
  H        -4.2684903019       17.6745632131       39.7570875411
  H        -5.3420651430       16.3424157341       40.1571827300
  C        -3.3788705624       16.3148172437       41.2073201608
  H        -3.0143107387       17.2099966022       41.7329030371
  H        -3.8817605038       15.6096888396       41.9386792383
  H        -2.4038621367       15.8839386235       40.9342294354
