352
i=
  H         3.2203538098        1.7672956158       13.6764652804
  C         3.9441939164        1.8786385027       12.8742352786
  H         4.2039869428        0.9279521951       12.5315231954
  C         3.3080260787        2.7596015381       11.7120837015
  C         5.1831263956        2.5378790539       13.4456265691
  C         4.3052824815        2.9511710284       10.5759355867
  H         3.0090107547        3.7586510909       12.0815402953
  H         2.3606574989        2.2011473685       11.5066304201
  H         5.2565969009        3.5791763643       13.0741919194
  H         6.0553550759        1.8734506886       13.1655081931
  H         5.1891925687        2.4348233127       14.5090660045
  C         5.0539667690        1.6306931735       10.0827849032
  H         3.7114030722        3.4170638725        9.8048884323
  H         5.0125694083        3.8103599441       10.8447584446
  C         5.6563867069        1.6579097251        8.6515336837
  H         4.3855431907        0.7521128034       10.1007386222
  H         5.9020035366        1.3849439590       10.7603458611
  C         6.9682569417        2.5431209775        8.5396164652
  H         5.0627891402        2.0139157402        7.8486756688
  H         5.8768398756        0.6005083657        8.4503349450
  C         8.1787923539        1.8089121888        9.0766399039
  H         7.1877954222        2.6665334444        7.4389672957
  H         6.9363114572        3.5791639594        8.9113837801
  C         9.4624876968        2.7015876206        9.2718583417
  H         8.3564727931        1.0135117892        8.3845995817
  H         7.8817926020        1.4224133533       10.0928209819
  C         9.1892112086        4.0534510858        9.8751471756
  C         9.8896712350        3.4401757646        7.9952927615
  C        10.7263630013        2.1801176028       10.1363232092
  C         9.3586094060        5.1424548864        9.0812394434
  C         8.6647371388        4.4584307354       11.1349716935
  C         9.8678780201        4.7663409633        7.8672706452
  C        10.1684343978        2.7243194876        6.8541951517
  H        10.3287375547        2.0025743953       11.1448473654
  H        11.1193874000        1.2753526882        9.6513370445
  C        11.9926693078        3.1585044723       10.1963407764
  S         8.9454751660        6.6807843610        9.7476350112
  C         8.5178452196        5.7970705844       11.1845056560
  H         8.4228204390        3.6732772152       11.8368892687
  C        10.1715191783        5.2810298413        6.6280170129
  H        10.2934617308        1.6975002030        6.8921653906
  C        10.4637655183        3.2358418451        5.6037023927
  H        11.6987522190        4.2231849215       10.1924139150
  H        12.5870089721        3.0972591109        9.2507154693
  C        12.9838281385        2.6440749688       11.2290390913
  C         8.0859002585        6.4902568485       12.4384830090
  C        10.4415194917        4.5564440050        5.4601500475
  H        10.0700398272        6.3180094001        6.5855003118
  C        10.7331984041        2.7992050368        4.3167312141
  H        13.9463116700        3.1583443862       10.9944157132
  H        13.2828729677        1.5681644425       11.0032626801
  C        12.5580040689        2.6309793147       12.6918554021
  C         8.0118869801        7.8914243841       12.6383186683
  C         7.6927841543        5.6816233572       13.6347511777
  C        10.6836597254        5.2101633568        4.1395125195
  C        10.9399206604        3.8836771414        3.4765833760
  S        10.8505934056        1.2791868916        3.5262234430
  H        12.0541434170        3.5037571046       13.0677333978
  H        11.8487250097        1.8972002545       12.8340347160
  C        13.7703446797        2.2339494034       13.6119399160
  N         8.4685861861        8.7955768775       11.7351585581
  C         7.7488053714        8.4576892145       13.9151657783
  C         7.4900032488        6.2470349799       14.8957364502
  H         7.3873430922        4.6562828106       13.4907372988
  C        12.0293500096        6.1241854440        4.1357345708
  C         9.5363107239        5.9788368555        3.4744956218
  C        11.3159035399        3.5144880500        2.2074328568
  C        11.4148436536        2.1193445196        2.0837826832
  H        14.5698403238        2.9917856186       13.5888068998
  H        14.2066480578        1.1851556420       13.3062124444
  C        13.3326888403        2.2592579061       15.1077313873
  S         8.3474572333       10.2826146932       12.3237488051
  N         7.7529504444        9.8402781971       13.7586712135
  C         7.5198137909        7.6727028111       15.0811787252
  H         7.3721378594        5.5261394723       15.7323604168
  H        11.8014424182        7.0725279406        4.6025385305
  H        12.3077235785        6.3273667463        3.1334988682
  C        13.2668412689        5.4424816424        4.8692884369
  H         9.3715886100        6.9686953500        4.0156233685
  H         9.8466507254        6.1629488554        2.3950593172
  C         8.1858019005        5.2796176476        3.4518625848
  H        11.5142976913        4.3114879011        1.5217338858
  C        11.5752312330        1.2945079595        0.8317528046
  H        14.1397134747        2.6733731941       15.6068679269
  H        12.5917404689        3.0733351354       15.1265651837
  C        12.7097681166        1.0820487936       15.8167283973
  C         7.2321817027        8.3962875081       16.3182119524
  H        13.3662230694        5.8246256980        5.9243119980
  H        13.1094755834        4.4035926272        4.9843175546
  C        14.5320841119        5.6486667715        4.0550661750
  H         7.8230110802        5.1227750264        4.4534968620
  H         8.2236903016        4.3273307295        3.0708128699
  C         7.1221115757        5.8968962017        2.5368437352
  C        11.7006779028       -0.0888657809        0.7473676626
  C        11.8202024553        2.0390839945       -0.3785532862
  H        13.4495018191        0.2777985587       15.8016452245
  H        11.8574489320        0.8463256054       15.1914322548
  C        12.1451550029        1.3397372834       17.1995887110
  H         7.4080190808        9.4457935887       16.0970250350
  C         6.7943937516        7.9968845360       17.5477568003
  H        14.7309767478        6.7327773573        4.0410838925
  H        14.3234947739        5.2613626508        3.0563005062
  C        15.6410561687        4.8148574041        4.6187288964
  H         7.0650438581        7.0200770637        2.5199326641
  H         7.3822495597        5.6740720634        1.4501546090
  C         5.6746169085        5.3636384328        2.8112663844
  N        11.4527816387       -1.0407553737        1.7303156355
  C        11.9869025764       -0.7655114664       -0.4579344757
  C        12.0164734490        1.3867803179       -1.6348744898
  H        11.7975927572        3.1182454546       -0.4013926843
  H        11.8476046503        2.3937802841       17.4313789225
  H        12.9332226872        1.1331606695       17.9614760477
  H        11.2376163522        0.7275221623       17.3652824110
  S         6.3916559635        6.4294411350       18.0981704715
  C         6.8201882416        9.0658030292       18.5976866296
  H        15.5177344229        4.2799483945        5.5284146053
  H        15.8701485934        4.0094215522        3.9521674035
  C        16.9048772095        5.6439477577        5.0468045692
  H         5.3827841096        5.6954112069        3.7732190146
  H         5.7103384872        4.3186557095        2.9180526179
  C         4.6907174688        5.7896987695        1.6993896409
  S        11.8065976673       -2.5772265472        1.2049296844
  N        12.1426540040       -2.1540861032       -0.3309646134
  C        12.1837742543       -0.1222067821       -1.6500639803
  H        11.9089991979        1.9607087837       -2.5584714476
  C         6.2964752481        7.0881881527       19.7391049002
  N         6.5380610639        8.4547745498       19.8043447731
  O         7.0874037547       10.2291894787       18.3345892129
  H        17.6484817626        5.5979736377        4.2712143291
  H        16.5353405310        6.6920014901        5.1704764121
  C        17.4834769972        5.0508948138        6.3468229500
  H         5.0187753766        5.4475811240        0.7156467055
  H         3.7780994573        5.1678424538        1.8165114977
  C         4.2204462471        7.2333275592        1.7044466143
  C        12.5375154727       -0.8590981085       -2.7925812177
  S         6.0618808963        6.1119238035       21.1929234483
  C         6.5353644719        9.1750173270       21.0546107229
  H        16.8949993204        5.1585716328        7.2386082305
  H        17.5269891477        3.9669265234        6.2201991385
  C        18.7609943749        5.7613186730        6.8073402662
  H         4.6467471223        7.7959469364        2.5471194252
  H         3.1595042888        7.2552088400        1.8763627189
  C         4.5363764496        8.0959452660        0.5360000879
  H        12.2974448188       -1.9213688150       -2.7525352199
  C        13.0157085647       -0.3792386206       -4.0278561181
  H         5.9512489033        8.6446751924       21.8344973820
  H         6.0181773138       10.0474560584       21.0237179431
  C         8.0202815517        9.4193827423       21.5005270886
  H        19.1365314998        5.3187916313        7.7396837907
  H        18.5495348652        6.8304312550        6.7972135509
  C        19.8762262278        5.5639601510        5.8369265577
  H         5.5881061761        8.0578812295        0.2072306199
  H         3.9091617241        7.7330689512       -0.3131444213
  C         4.1248506716        9.5305815136        0.6897760438
  S        13.5637745776        1.1616112356       -4.4715247105
  C        13.1983980382       -1.4220503809       -5.0727075773
  H         8.3299480479        8.4940362079       22.0608206157
  H         8.1263754893       10.2658626086       22.2034304511
  H         8.6901854446        9.5773230585       20.6099583275
  H        20.4880833462        4.7657319587        6.2774024534
  H        19.5380445537        5.2748732927        4.8333010191
  H        20.3961833848        6.4807024136        5.8310151999
  H         3.0989571554        9.6927387100        1.1504944807
  H         4.7161784515       10.0842388030        1.3506484254
  H         4.3247261292       10.0604227485       -0.2213637768
  C        14.1053991446        0.3288795300       -5.9853262113
  N        13.7477061792       -0.9705612025       -6.1594971478
  O        12.8362383800       -2.5748243289       -4.8049873907
  S        15.1129126293        1.0880208484       -7.2149226986
  C        13.9443439201       -1.8150176176       -7.3039315520
  H        13.7132162056       -2.8456014589       -7.1278114184
  H        14.9894465557       -1.6854467101       -7.5648570512
  C        13.0562358699       -1.1655555333       -8.4139694041
  H        12.1186579485       -0.7951694267       -7.9986605680
  H        12.6961028462       -1.9209620290       -9.1109607818
  H        13.5417058687       -0.2735186660       -8.8756875700
  H        -2.4155986434       12.0428191961       17.1004770622
  C        -1.9206589691       12.9864698564       16.7850412802
  H        -0.8370318552       12.9355630273       16.8329324554
  C        -2.4793946306       14.0439169684       17.8091608569
  C        -2.2548538503       13.3901660649       15.2786949588
  C        -2.7697549378       13.4220160527       19.1424169271
  H        -1.7394006021       14.8418471687       17.9310693317
  H        -3.3794440294       14.5765290446       17.4404375768
  H        -1.8197290217       14.3310654506       15.0350023789
  H        -2.0326249231       12.5730760935       14.5591300889
  H        -3.2833648261       13.6041681593       15.2113980997
  C        -1.5560721532       13.0689040897       19.9985758042
  H        -3.4529050592       12.5389899838       18.9983886261
  H        -3.3711414851       14.1591261795       19.7154418352
  C        -1.9746573866       12.7654422612       21.4716620492
  H        -1.0693102899       12.1497683526       19.5715200239
  H        -0.8741389173       13.8407969249       19.8006460048
  C        -0.8990522781       12.3212078701       22.4499151061
  H        -2.6845989324       11.9141681920       21.4878587949
  H        -2.5246158643       13.6080575451       21.9714313507
  C         0.1668136802       13.4045284463       22.7532433163
  H        -1.2569138582       12.0554616615       23.4539042235
  H        -0.3806459424       11.4837323841       21.9946369488
  C         1.4265957953       12.9204576990       23.4967534181
  H         0.5346449824       13.8636774621       21.9004726868
  H        -0.3732540615       14.2318921411       23.2723045797
  C         1.8781893769       11.6383852371       22.8889459207
  C         0.9938956962       12.1840101081       24.7657733364
  C         2.5051385718       13.9545055718       23.6611931075
  C         1.6265187249       10.4821382323       23.6114065005
  C         2.3999956519       11.2558568382       21.6249051916
  C         1.0782204886       10.8253632124       24.8338403057
  C         0.3392514257       12.7714299771       25.8486629749
  H         2.5949120416       14.5691883447       22.7615938590
  H         1.9952210769       14.5642724359       24.3462446710
  C         3.8954935383       13.3709247416       24.0709655472
  S         2.1911204846        8.9692486770       22.9213660594
  C         2.4837131964        9.8501912347       21.4289977479
  H         2.4683666336       12.0390038403       20.8280895617
  C         0.7367696868       10.2217159670       25.9834603119
  H         0.1609809766       13.8416208865       25.7646389952
  C         0.0297688610       12.1203262036       26.9941007493
  H         4.2336633111       12.6316463078       23.3286425244
  H         3.6303216617       12.8383440922       25.0332206675
  C         5.0064548813       14.4239162454       24.2513791891
  C         2.9669015945        9.2762826925       20.1190971419
  C         0.1836534669       10.7910212880       27.1549352302
  H         0.9059829176        9.1575216349       25.9649204904
  C        -0.4304590742       12.4759369004       28.2452588586
  H         5.8873215496       13.9214494467       24.6765063961
  H         4.6624737969       15.1918568602       25.0118765329
  C         5.4434735959       15.0477282537       22.9095521183
  C         2.9987368550        7.8382539660       19.8597428979
  C         3.4281550648       10.1442281304       19.0332022628
  C        -0.1590360852       10.1189510959       28.4541596988
  C        -0.5359478660       11.3458783704       29.1278973746
  S        -0.6594177431       13.9243903430       29.1243084302
  H         6.0266247141       15.8427441021       23.2371763338
  H         4.6752360403       15.4455176170       22.2125816972
  C         6.2324101209       14.0639325283       22.0480253219
  N         2.7216247423        6.9198463846       20.8296990500
  C         3.3257558272        7.2858009654       18.6164944607
  C         3.6036428616        9.5453032457       17.7606767930
  H         3.3851819708       11.1903094578       19.1192767372
  C         1.0564101758        9.4349210714       29.1670499911
  C        -1.4249828608        9.1490264644       28.3669277033
  C        -0.7468897273       11.7231188382       30.4769623578
  C        -0.8825225211       13.0708595314       30.6239805900
  H         7.1328372465       14.5016172955       21.7443152273
  H         6.6565889586       13.2383243343       22.5823460571
  C         5.5025216487       13.4830433091       20.7829885414
  S         2.7991661892        5.4597255097       20.1306731081
  N         3.1960261869        5.8640129136       18.6104214115
  C         3.6058180227        8.0850506551       17.5331449806
  H         3.8522120169       10.1901450308       16.9928167595
  H         1.4794148344        8.7583244077       28.4520254621
  H         0.8009219072        8.9013519127       30.0249611586
  C         2.1683848341       10.4664033753       29.5797503210
  H        -1.2655211051        8.3644639828       27.7135725878
  H        -1.6410240008        8.6605598189       29.3976531287
  C        -2.6543329542        9.8048947049       27.8479854231
  H        -0.7282409617       10.9271154269       31.2946898940
  C        -1.3583779800       13.7235888737       31.9069890793
  H         5.0097246746       14.3704490775       20.2682152834
  H         4.6450282138       12.8271813028       21.0608451647
  C         6.3266566710       12.6141536853       19.7567114839
  C         3.6784613490        7.3829153257       16.3102842420
  H         2.5363458954       10.9481682030       28.6382610662
  H         1.9074670954       11.2102439053       30.3101918759
  C         3.3174538022        9.7765655982       30.2304502795
  H        -2.3484581674       10.5492879044       27.0694651884
  H        -3.0026462536       10.4851192536       28.6038032578
  C        -3.6793406159        8.7917853678       27.3580209034
  C        -1.3924969886       15.1275680613       32.1157885668
  C        -1.6542238480       12.9167646096       33.1210814400
  H         6.9960604653       11.8700908330       20.2026406574
  H         5.7729346201       12.1644205598       18.9318536156
  C         7.4000920830       13.3949388138       19.0669767205
  H         3.6772022797        6.3415643096       16.3224176923
  C         3.9556143347        7.8603930509       15.0750413521
  H         3.8315073295        9.0796382094       29.5673098336
  H         2.9589835764        9.0634133680       30.9752582011
  C         4.3539622028       10.7122177012       30.9338229251
  H        -3.3458247400        8.3335757692       26.3957265726
  H        -3.8022379989        7.9949779716       28.0400929194
  C        -5.0400245399        9.4741155799       27.1337862811
  N        -1.0923295182       16.0826930758       31.1143251799
  C        -1.6865675347       15.7166221633       33.3600228529
  C        -1.8929024373       13.4672165537       34.3443730027
  H        -1.6299967216       11.7975811577       33.0509752770
  H         8.1477443218       13.8405244758       19.7301397888
  H         7.7970078656       12.8337650558       18.2732465076
  H         6.8306738383       14.1572314439       18.5222175663
  S         4.1823007082        9.5336692621       14.5491149415
  C         4.0745387357        6.8689183702       13.9741039012
  H         4.2644567934       11.6201267628       30.3299309302
  H         4.0058048651       10.8915933042       31.9709476259
  C         5.8954717895       10.2654549371       30.9775129126
  H        -4.9587136938       10.3959060526       27.7311747325
  H        -5.8559455023        8.8309917115       27.5190562506
  C        -5.3223082611        9.9109068011       25.6593792477
  S        -1.2562342948       17.5770361171       31.7503430024
  N        -1.7433001501       17.1109942801       33.2463538843
  C        -1.9926939647       14.9526605412       34.4726746398
  H        -2.0193937047       12.7503188654       35.1349837248
  C         4.1795278938        8.8797867701       12.8798275692
  N         4.3381398043        7.4961304613       12.7985861213
  O         4.1173674209        5.6263770139       14.1705190880
  H         6.4090096341       11.0045484348       31.6641647051
  H         6.2672571185       10.3413062431       29.9014454639
  C         6.1487057675        8.7848926842       31.4539797990
  H        -4.5728298145       10.5760000735       25.3264322671
  H        -5.3358163965        9.0824942492       24.9159729978
  C        -6.6917184078       10.5924625042       25.5514719985
  C        -2.4179036366       15.6291447224       35.6334880824
  S         4.7728858440        9.8766579865       11.6033851499
  C         4.3857182531        6.7249502770       11.5849047689
  H         6.7480117352        8.8322828356       32.3477927101
  H         5.2391567833        8.2944568708       31.7291172168
  C         6.6507049508        7.9677414370       30.2393864668
  H        -6.8365424145       10.7124686785       24.4763533343
  H        -6.6632321132       11.6167530187       26.0530112899
  C        -7.8827766852        9.7415242139       26.0651077332
  H        -2.3007708037       16.7111047730       35.6021165234
  C        -2.9646738965       15.1711578911       36.8245831124
  H         4.9531081291        7.2741884554       10.8074402741
  H         5.0288523499        5.8478646362       11.6304554128
  C         2.9110214636        6.5407290000       11.0940901614
  H         7.5152193170        8.4400146254       29.7413537969
  H         5.8782157572        7.9476232550       29.4218842341
  C         7.1385670665        6.5937205644       30.7555603354
  H        -7.5693451268        8.7170947847       25.9577624690
  H        -7.9372743170        9.8493827389       27.1599578146
  C        -9.2035784003       10.2692147082       25.5315131813
  S        -3.2935164246       13.5632338536       37.2431193531
  C        -3.3125432856       16.1755367965       37.8521374060
  H         2.7454645185        6.1395252957       10.0986938349
  H         2.3927513996        5.8675155478       11.7302131136
  H         2.4701876222        7.5453535176       11.1927899554
  H         6.4133058515        6.1673982286       31.4406826180
  H         8.0537413529        6.7241837617       31.2638879618
  H         7.2782566212        5.8720126659       29.9772228816
  H        -9.2800718511       11.2945685400       25.7925250464
  H       -10.1099039817        9.6492629855       25.6908127897
  H        -9.2076915239       10.3610898470       24.4325224551
  C        -3.6537249567       14.1781940471       38.8273607808
  N        -3.6953553042       15.4826036110       38.9247933922
  O        -3.1310132729       17.3867250869       37.8269576119
  S        -4.1188360344       13.0919192768       40.1439374677
  C        -4.0603819414       16.1763100003       40.1932771912
  H        -4.4949263931       17.1168430733       39.9108727473
  H        -4.8790809056       15.6723737969       40.7718466417
  C        -2.7504660809       16.5729537267       40.9757431034
  H        -1.8656423808       16.1029357560       40.4709284052
  H        -2.6291636283       17.6699356028       40.9060805334
  H        -2.6792556212       16.2728397240       42.0661090470
