352
i=
  H         4.4372396420        1.0393661701       12.0278127497
  C         3.9102792048        2.0372397885       12.1490062460
  H         4.7365051031        2.7801122618       12.1927390122
  C         3.0030872562        2.0791868684       10.8979694961
  C         3.0549905080        1.7819034949       13.4029735401
  C         3.7092467666        2.4586154129        9.6624151018
  H         2.1547555854        2.7496023902       11.2032361573
  H         2.5470618594        1.0952167762       10.8796831423
  H         2.2252237522        1.0888762963       13.2092499394
  H         2.6983283448        2.6287980076       13.9528616588
  H         3.5452843784        1.1843822720       14.1435109084
  C         4.5909014707        1.2341034808        9.1984729862
  H         3.0196006255        2.6119488429        8.8157366418
  H         4.3136203447        3.3076036930        9.8620981301
  C         5.5704096443        1.6397554232        8.1471475095
  H         3.9809397778        0.4009941496        8.9021275604
  H         5.3329818789        0.7606031750        9.8886135337
  C         6.7793843684        2.5684096189        8.4799530304
  H         4.9550067319        2.2817724196        7.4797039746
  H         5.9886229971        0.8050223381        7.5221109429
  C         8.0490173025        1.7821047438        8.7881036341
  H         7.0168594915        3.2526835565        7.6865580703
  H         6.5137055500        3.3045701319        9.2373811095
  C         9.3832195831        2.6635782723        8.8867299087
  H         8.2303451570        1.0335364682        8.0283930010
  H         7.9058111739        1.2837192460        9.8227319544
  C         9.0444132095        3.9564461424        9.6362249137
  C         9.7834009926        3.3872986462        7.6515677936
  C        10.5067392707        1.9978295662        9.6850228251
  C         9.0713293745        5.0448788934        8.7902559302
  C         8.7548103840        4.3676534182       11.0037040884
  C         9.5771339400        4.7320090575        7.5558835112
  C        10.1665220894        2.8464259027        6.4476775608
  H        10.0506451061        1.6515957192       10.5985356888
  H        10.7582220609        1.1932193178        9.0342504173
  C        11.8197620573        2.7513971133        9.7559217074
  S         8.4486434157        6.4984420822        9.4929658870
  C         8.4314066001        5.7193113906       11.0845745198
  H         8.8287280069        3.6931167425       11.8245683792
  C         9.7392696646        5.3608833159        6.3607888636
  H        10.1704425405        1.7201196144        6.5524183470
  C        10.3693860839        3.4458562722        5.2703279126
  H        11.6906988496        3.7504427071       10.0536388584
  H        12.3231254203        2.7903138663        8.8061975394
  C        12.7161112211        1.9968176388       10.6765064315
  C         7.8971648873        6.4261613554       12.3398204281
  C        10.2419573623        4.7825569083        5.2109712478
  H         9.4832323649        6.3777103772        6.3151547870
  C        10.7725650797        3.0527685896        4.0220281311
  H        13.7434472002        2.4479053610       10.6137306562
  H        12.7200028038        0.9701352188       10.1876848736
  C        12.2610432548        2.0745826508       12.1036495449
  C         8.0000179347        7.7964998929       12.5008517408
  C         7.4149378329        5.6012866407       13.4787182689
  C        10.6364789813        5.4590148242        3.9325903255
  C        10.8960223195        4.1276309862        3.1471131473
  S        11.0692633550        1.5370106165        3.2985760360
  H        11.8369404445        2.9673819397       12.4647709177
  H        11.5603795951        1.1934885790       12.2853289800
  C        13.4135926887        1.7900846933       13.0711154286
  N         8.4868987565        8.6790625863       11.5178157657
  C         7.5928582271        8.3942181797       13.7234238347
  C         7.0450783775        6.1442248390       14.6461162115
  H         7.1798517456        4.5331612652       13.3583482110
  C        11.9282986007        6.2325735319        4.1299945867
  C         9.3986709683        6.1904524674        3.3493797668
  C        11.1268754904        3.6429641995        1.8380595524
  C        11.3311642170        2.2959239195        1.8348500273
  H        14.1771962208        2.5731131900       13.0826000516
  H        13.9271720934        0.9753516560       12.6063801808
  C        13.0555148253        1.3618886338       14.5255103793
  S         8.2440986559       10.2030035748       12.1889513762
  N         7.6932291906        9.7969436764       13.6876194771
  C         7.2109906691        7.6240087552       14.8480048735
  H         6.7168073725        5.4909943394       15.4202110339
  H        11.7411053740        7.0682736987        4.8153938732
  H        12.3347676239        6.6167729333        3.1844164888
  C        13.1320155780        5.2604456120        4.4754782901
  H         9.1482769593        6.9268122692        4.1191374612
  H         9.7355880873        6.7656522971        2.4781238239
  C         8.2247647636        5.2228404910        3.0339589020
  H        11.2087831139        4.3567883038        1.0093209784
  C        11.6209843981        1.4494761651        0.6246824455
  H        12.3756738459        0.5725388368       14.4680159023
  H        14.0168367552        1.0237829824       14.9987300796
  C        12.4570582470        2.4390269219       15.3843710007
  C         6.8349675317        8.3207155323       16.0676774932
  H        12.9532917551        4.6130844027        5.3794757221
  H        13.3615781470        4.7538183288        3.5353802713
  C        14.3670761438        6.0263190869        4.8178835978
  H         8.0351954925        4.5023550531        3.8033723801
  H         8.6323497545        4.6258651325        2.2377916617
  C         7.0801679851        5.9849481044        2.3432375699
  C        11.8134583754        0.0414889071        0.5393507144
  C        11.9202793585        2.2012969797       -0.6607830952
  H        11.3983501669        2.3699749123       15.2055957948
  H        12.7126489122        3.4408996584       15.0490223054
  C        12.7942832822        2.2255199538       16.9349938149
  H         6.7231209699        9.4092079365       16.0036688739
  C         6.5161768228        7.8262196091       17.3213840187
  H        14.1041275265        6.6512342759        5.7353846882
  H        14.6907358276        6.7880456271        4.1202802044
  C        15.4597906821        5.0760388987        5.1887529605
  H         6.7430342368        6.8351079410        2.8995045284
  H         7.2752050001        6.3026686807        1.3538702683
  C         5.8552225377        5.0141666782        2.2922459498
  N        11.6768428149       -0.8118037096        1.5538870272
  C        12.2303395762       -0.5889458296       -0.6366526269
  C        12.1143581434        1.5189972335       -1.8519174367
  H        11.8682584152        3.2578311347       -0.6066613318
  H        13.8362730839        1.9729979798       16.9797790251
  H        12.0944677567        1.4016377615       17.2327274609
  H        12.6829078001        3.1550929240       17.4817355593
  S         6.3259047996        6.1876256528       17.9046270054
  C         6.3705899026        8.8423543907       18.3374798298
  H        15.2561143210        4.3732378973        5.9890292695
  H        15.6168349177        4.4485632337        4.3140416980
  C        16.8283471683        5.7694322780        5.4800769647
  H         5.4736894151        4.8033823032        3.2424722560
  H         6.2214498129        3.9607286348        2.0109011086
  C         4.7092679523        5.4898931234        1.3301586901
  S        11.6610092893       -2.3407669953        0.9591838294
  N        12.2547145194       -2.0123460864       -0.5193084648
  C        12.3973536552        0.0588845702       -1.8569814728
  H        12.2843118498        2.0311146043       -2.8018276068
  C         6.1225703735        6.9606811458       19.5000927988
  N         6.1003426053        8.3165399666       19.5303564507
  O         6.2327164254       10.0639211788       18.0911345640
  H        17.4683534742        5.4905684627        4.6457038951
  H        16.7145939257        6.8868190373        5.5066372056
  C        17.3930868064        5.1876945559        6.7935626094
  H         5.0918955390        5.7535160216        0.3483601073
  H         3.9142518964        4.7705168930        1.2918070552
  C         4.1727865149        6.8253051900        1.7822096055
  C        12.7549813980       -0.7875850855       -2.9259546798
  S         5.7235755449        6.0215923531       20.9192334428
  C         6.0435244261        9.0226273077       20.7977713704
  H        16.7146157185        5.2105625722        7.6546772437
  H        17.5922406147        4.1346539318        6.4832062849
  C        18.7624286158        5.8487736246        7.1596164871
  H         4.6020820700        7.0860665319        2.7692574390
  H         3.1114826358        6.7085064879        1.9785337021
  C         4.4510358345        8.0279698652        0.7454519838
  H        12.7397043505       -1.8656261709       -2.7939016323
  C        13.2982887269       -0.4039100076       -4.1382382957
  H         5.3931960204        8.5357631346       21.5947919211
  H         5.5567984174       10.0367949035       20.7563863354
  C         7.4824658352        9.1708961208       21.3537701800
  H        18.9228246972        5.6312437368        8.2272782019
  H        18.6875748892        6.9202635178        7.1215599703
  C        19.7792147799        5.4369654559        6.1445731765
  H         5.4482079444        8.2575403555        0.5955025146
  H         4.0711861306        7.8035586607       -0.2723999456
  C         3.7495457269        9.3382481106        1.0959131733
  S        13.8852181568        1.1193058973       -4.7460394233
  C        13.3470941533       -1.5062929140       -5.1309331080
  H         7.6740708956        8.2648563465       21.8770530327
  H         7.5599015790       10.0327285486       22.0054518370
  H         8.2861087931        9.3048724195       20.6091796799
  H        20.7625858464        5.8605170226        6.4334058570
  H        19.7684954256        4.4196967601        6.0501299337
  H        19.6305086019        5.7656319839        5.1159767899
  H         2.7085945942        9.4017993981        0.8434460026
  H         3.9632931109        9.6495186511        2.1241421960
  H         4.2902485807       10.0973000802        0.4930191617
  C        14.3222228233        0.2770978645       -6.1853819206
  N        13.9301762258       -1.0094828485       -6.2479910532
  O        12.8479484378       -2.6466573050       -5.0188140504
  S        14.9354625977        1.0143952649       -7.6424222662
  C        14.0666813744       -1.7203737105       -7.5315497787
  H        14.0940044262       -2.8025506030       -7.2947949699
  H        15.0280139347       -1.4490696475       -7.8916104544
  C        13.0143989490       -1.3114049223       -8.4786437558
  H        13.2835720965       -1.5470286805       -9.5024810992
  H        12.6172004758       -0.3015123109       -8.3372588742
  H        12.2396206672       -2.0523640342       -8.2075621135
  H        -3.2994712080       14.6511599958       16.1326350467
  C        -3.1594723956       13.5538845616       16.2175529695
  H        -4.0124846368       13.1045608219       16.6727362992
  C        -2.1166106636       13.1544149937       17.3197797570
  C        -2.7246253881       12.9983756557       14.8403854368
  C        -2.7259471040       13.2550767647       18.7606732420
  H        -1.7600975476       12.0902061338       17.1859295835
  H        -1.3130257555       13.8695793717       17.3031761518
  H        -2.5469924101       11.9292407950       14.8203362474
  H        -3.5795999438       13.1889218632       14.0620843347
  H        -1.8980639997       13.5762945689       14.4591411228
  C        -1.6975515220       12.9941770368       19.8619180105
  H        -3.5220182045       12.4542023392       18.8112785513
  H        -3.2338328256       14.2351466238       18.9051614885
  C        -2.1233239744       13.2621515058       21.3159775029
  H        -1.2398902930       11.9981087435       19.7295891628
  H        -1.0232606033       13.8112714161       19.6573473989
  C        -1.1442675905       12.7767205210       22.3894164733
  H        -3.0277674971       12.6523767570       21.4704566630
  H        -2.4465334174       14.2876443557       21.3425813199
  C         0.0542674556       13.6884548235       22.5230556559
  H        -1.6178709320       12.7006417773       23.3395130458
  H        -0.7892820454       11.7992991776       22.0506829132
  C         1.2438021417       12.9333967095       23.2187368178
  H         0.3445453302       14.0199167424       21.5419566222
  H        -0.2345990473       14.5330877401       23.1543870377
  C         1.6661592211       11.5955755795       22.5823210018
  C         0.8018797711       12.2820296715       24.4760436352
  C         2.4418332150       13.8614177798       23.5158901421
  C         1.4360387568       10.5544013361       23.3489063813
  C         2.1654997342       11.1795174510       21.3287730528
  C         0.8813707666       10.9328084465       24.5449368158
  C         0.2472187251       12.9114549532       25.5787614170
  H         2.5154907535       14.5493117399       22.6060571368
  H         2.1004757778       14.4604717343       24.3135663105
  C         3.7623829689       13.1404128981       23.9866596857
  S         2.0187835791        9.0756158049       22.7340743795
  C         2.3423193667        9.8630490643       21.2351887299
  H         2.3883972189       11.8993454194       20.6112474053
  C         0.4818925357       10.2381185878       25.6586658792
  H         0.2173061815       13.9584478107       25.6680083520
  C        -0.1263590640       12.2068238760       26.7105813536
  H         3.9970291849       12.3686643311       23.2395337463
  H         3.5425988949       12.5288853836       24.8761617488
  C         4.9372385349       14.0964704728       24.2040642696
  C         2.6242483273        9.1351513385       19.9413862960
  C        -0.1069617538       10.8421654130       26.7549019624
  H         0.6483989003        9.1164315009       25.5975348882
  C        -0.3937530863       12.5986354294       27.9522688869
  H         5.6759546490       13.5051009182       24.7133355090
  H         4.7298263243       14.8754154131       24.9637923688
  C         5.5065605184       14.6927407793       22.9361614594
  C         2.5658519680        7.7076454231       19.7944451020
  C         3.1519452301        9.8659176603       18.6864411980
  C        -0.4305858284       10.1908684114       28.0769493265
  C        -0.5911559464       11.5168645689       28.7843805516
  S        -0.6744521179       14.0583076334       28.7349945500
  H         6.2673104572       15.3275900611       23.2990107199
  H         4.6989006858       15.2104170988       22.4413257690
  C         6.1680274504       13.5719666123       22.1687850600
  N         2.2690290685        6.8357604638       20.8895592709
  C         2.7322080310        7.0698530503       18.5599260728
  C         3.3492778912        9.2071322907       17.5018337282
  H         3.3275069773       10.9568833599       18.7724163878
  C         0.7294914852        9.3330645824       28.6281981810
  C        -1.7345506495        9.4109552593       28.0550481674
  C        -0.9358101715       11.9159758443       30.1044600883
  C        -0.9631948103       13.2815237935       30.2367864833
  H         7.2049937837       13.8654226707       21.9393058692
  H         6.0401553278       12.5481442306       22.6295618470
  C         5.5911682633       13.3731677661       20.7620811922
  S         2.3585250580        5.3354735034       20.3298849159
  N         2.6951768005        5.7363206094       18.7313065682
  C         3.0773639502        7.7522966819       17.3516937314
  H         3.8357651011        9.8306062305       16.7542983894
  H         0.8648766364        8.4118524523       28.0940198276
  H         0.4031207375        9.1373999693       29.6427526836
  C         2.0257997778       10.1252538185       28.7235600056
  H        -1.6359540923        8.7119682695       27.2186659901
  H        -1.9079775205        8.8882290724       28.8629331235
  C        -2.9067923182       10.3165294011       27.8899606746
  H        -1.1761618821       11.1406096579       30.8060567794
  C        -1.2710785270       14.0598179854       31.4568308265
  H         4.7512199722       14.0376245655       20.5727472464
  H         5.0524929092       12.4394260855       20.7786994557
  C         6.5219595850       13.4897284074       19.5718120901
  C         3.2775178938        6.9719201956       16.1134832162
  H         2.2221514775       10.4853009599       27.7587000702
  H         1.8077709796       10.9897644682       29.2860544620
  C         3.1957678702        9.4040878338       29.4202986577
  H        -2.7763978955       11.0919299990       27.1785436801
  H        -3.1931696269       10.6915587362       28.9027241952
  C        -4.1837326631        9.5024728262       27.5060096377
  C        -1.4247628781       15.4237580217       31.5045995506
  C        -1.6064175096       13.2637855532       32.7171508653
  H         6.0117905772       13.0827689230       18.6762344793
  H         6.7089142784       14.5661146223       19.4599432765
  C         7.7396994205       12.5247424637       19.7784686609
  H         3.0349439933        5.9234910659       16.2079108493
  C         3.7004709223        7.3076294074       14.8601904261
  H         3.7561586559        8.9287224619       28.5433361757
  H         2.6680751136        8.7397458141       30.1548580355
  C         4.2617483302       10.2861409986       30.0491670567
  H        -3.8419842839        8.6230011028       26.9789969186
  H        -4.7633116043        9.1766391686       28.3723212628
  C        -5.0738121091       10.4588351930       26.7004274402
  N        -1.1973525342       16.3318523746       30.4290351771
  C        -1.8097990689       16.0437637674       32.7291867333
  C        -1.9332374282       13.9324526540       33.9131573846
  H        -1.5463938876       12.1630141609       32.6705306797
  H         8.1481333731       12.1875930662       18.7896873042
  H         8.5735350062       13.0889956414       20.1765249434
  H         7.4623478380       11.6199909248       20.2873064554
  S         4.1445526011        8.8746588635       14.3164566053
  C         3.6573784375        6.3043430585       13.7354467670
  H         4.5254643367       11.0821807119       29.3256091403
  H         3.7587200838       10.7516868857       30.9310546979
  C         5.5722109578        9.4947271266       30.3181462069
  H        -4.5356333838       11.0439417764       25.9883489506
  H        -5.3703746613       11.2424491395       27.3567453989
  C        -6.1867098056        9.7414839416       25.9593531176
  S        -1.4453521410       17.8018894413       31.0037173166
  N        -1.8450160348       17.4354725580       32.5637689543
  C        -2.0906710865       15.4041411326       33.9103430065
  H        -2.0106569371       13.3253287263       34.7864915035
  C         4.3602724791        8.2399183140       12.7403204022
  N         4.0068449282        6.9446355657       12.5928438427
  O         3.5444404116        5.0769308194       13.8990274900
  H         6.4654294867       10.0201249556       30.7018370733
  H         5.9044238140        9.1117148497       29.3872743817
  C         5.3883876941        8.3752811541       31.4128306071
  H        -5.7130017364        9.1279993208       25.2073980549
  H        -6.6595182439        9.1363887684       26.7309029338
  C        -7.1399519595       10.6231262309       25.1795738913
  C        -2.4247963972       16.2553077182       34.9896579266
  S         4.6547916722        9.3312060364       11.3728650973
  C         4.0074450346        6.1400819078       11.3652471967
  H         6.2173318455        8.3873589092       32.0886657669
  H         4.5380234609        8.4246266614       31.9734246365
  C         5.4259504509        6.9860515886       30.7308446544
  H        -6.6085200240       10.8279960153       24.2395019507
  H        -7.3948207826       11.5719479213       25.6132087425
  C        -8.3906125413        9.8376320365       24.9748402439
  H        -2.0335431988       17.2892688438       34.8609157995
  C        -2.8500613098       15.9869445492       36.2483747984
  H         4.6753139953        6.5174727622       10.6269802944
  H         4.2638506382        5.1249390291       11.6647239401
  C         2.5095061342        6.1646200221       10.8557761156
  H         5.1687529813        7.1924119090       29.6564188290
  H         4.6074531478        6.4080732866       31.1710591381
  C         6.6254024808        6.1472708356       30.7984351550
  H        -8.9327547710       10.4115940396       24.2549427500
  H        -8.1635400289        8.8635875346       24.5317634106
  C        -9.2665135303        9.6856240191       26.1870440131
  S        -3.1574954328       14.4316495369       36.8751906594
  C        -2.9090441907       17.0468701844       37.3125580645
  H         2.2654812540        5.3049344875       10.2549086514
  H         1.7764658261        6.3597039897       11.6663207840
  H         2.2925659680        6.8971042364       10.0982773439
  H         7.4747327141        6.7019897696       30.5433682162
  H         6.5081268487        5.3820735586       29.9651658745
  H         6.6344215340        5.7003388875       31.8222511629
  H        -8.7615715315        9.2009041200       27.0083226286
  H       -10.1917577855        9.1084296374       25.9922022048
  H        -9.6452905850       10.7168662141       26.4282153741
  C        -3.3768753404       15.1824120410       38.4500602872
  N        -3.4145903340       16.5319835664       38.4365721682
  O        -2.5915733806       18.2488763515       37.1089979379
  S        -4.1012981543       14.4266816930       39.9111347918
  C        -3.4516828646       17.3394357415       39.6267669530
  H        -3.7789962977       18.3092195445       39.3978809961
  H        -4.0788746971       17.0286023783       40.4377229866
  C        -2.0578079752       17.4384926049       40.2354989446
  H        -1.2606741207       17.5770087292       39.5150386751
  H        -2.2036413094       18.1511152277       40.9977490499
  H        -1.7868125878       16.5873094606       40.8198254734
