352
i=
  H         4.7247251024        1.7247639466       12.5259625714
  C         4.0376722913        2.5638172247       12.4038531954
  H         4.6838775765        3.4506362523       12.3287135554
  C         3.2486768482        2.4994697693       11.0849171153
  C         3.1103171677        2.6438620092       13.6814598467
  C         4.0478977834        2.7494214064        9.8117440141
  H         2.5185414425        3.3157037423       11.0461292930
  H         2.6357654745        1.6358362507       11.0507073609
  H         2.3024699811        1.9126959219       13.5073591149
  H         2.6550456515        3.6517119355       13.9441159077
  H         3.6723809640        2.4211251882       14.5814753015
  C         4.6374083183        1.5051214660        9.1470232369
  H         3.3934612339        3.5167147685        9.1876306808
  H         5.0051344477        3.3207533495       10.0547413939
  C         5.3181965652        1.8893488187        7.8054987152
  H         3.8120750700        0.7784180949        9.0388234199
  H         5.4897537850        1.1787759922        9.7655387079
  C         6.6040385570        2.6802733840        7.8782779985
  H         4.6106313548        2.3482085071        7.0820959047
  H         5.5563524924        0.9817183792        7.2842615680
  C         7.7677014659        1.9363693376        8.4814236127
  H         6.8679465094        3.0529396853        6.9215881906
  H         6.4369747367        3.5196790008        8.5451519064
  C         9.0878772943        2.7623986580        8.7768467944
  H         7.9609505364        1.2337209189        7.6683217914
  H         7.5214443507        1.3393676203        9.3303859689
  C         8.7961116077        4.1022095192        9.4747068243
  C         9.5293029884        3.4920535209        7.5529889068
  C        10.3260258425        2.0433167678        9.4778309048
  C         9.0490915873        5.2321045684        8.7164342440
  C         8.1738618620        4.4572976647       10.7111946634
  C         9.5565775705        4.8393366930        7.5040118256
  C         9.9249665256        2.8921165321        6.3468455896
  H        10.0001753773        1.4008788597       10.2833603447
  H        10.7216218650        1.3865217599        8.7541239116
  C        11.5866472603        2.9813193756       10.0326812400
  S         8.7469681866        6.7148642844        9.5097553434
  C         8.1143841529        5.8236143027       10.8502938855
  H         7.9540503454        3.6816998930       11.4281761385
  C         9.8282986884        5.4867816317        6.3551949658
  H        10.0154950709        1.8414221373        6.4480594696
  C        10.3304291818        3.5342878101        5.2207881510
  H        11.1062463410        3.7891870339       10.6811156056
  H        11.9266152839        3.5763826072        9.1772525687
  C        12.6555744057        2.3523673379       10.9387732432
  C         7.6626633860        6.6062219173       12.0980659910
  C        10.2735521175        4.8942847611        5.1987243612
  H         9.6539967983        6.5393935130        6.3483740003
  C        10.6666957582        3.1810077944        3.9233384539
  H        13.5529414181        2.9399934722       10.9203439628
  H        13.0211624159        1.3292544503       10.6062558007
  C        12.2375019996        2.1789030610       12.3298686445
  C         7.6001918756        8.0066954954       12.3562309587
  C         7.2732375642        5.6813956440       13.2464810091
  C        10.7351299509        5.6428530244        4.0234177217
  C        10.8976972172        4.3392251292        3.1697405860
  S        10.8593352534        1.7074348451        3.1578818240
  H        11.4721778664        2.9641972359       12.5984627006
  H        11.7838594700        1.1955946176       12.3575262750
  C        13.3964257064        2.2890236106       13.2959424318
  N         7.8486927203        9.0755859964       11.4308686047
  C         7.4255600913        8.4739019044       13.6183712694
  C         6.9225463198        6.2356118062       14.5001975373
  H         7.0932976643        4.6199588369       13.0282279659
  C        11.9622056764        6.5174720286        4.3123299788
  C         9.5925589497        6.5251760916        3.4022057975
  C        11.2456215097        4.0160822271        1.8409447330
  C        11.2392491788        2.6266806644        1.7144293451
  H        13.6432342457        3.3553029293       13.4222431041
  H        14.2893517622        1.8003110910       12.9722566546
  C        13.0620581052        1.7943364715       14.7209311020
  S         7.9332183848       10.5080798170       12.2209636886
  N         7.5128869922        9.9050104121       13.6815700869
  C         7.1895782591        7.6694260375       14.7598717335
  H         6.5911943783        5.6057961470       15.3271084180
  H        11.6898018670        7.2152455419        5.1252370055
  H        12.1288691295        7.0201458361        3.3726645101
  C        13.2920802748        5.8770406179        4.6853332964
  H         9.2477242404        7.1665354242        4.2058845946
  H        10.0671022396        7.1900347580        2.6481231159
  C         8.3643924134        5.7889191544        2.9237080024
  H        11.3822334705        4.8473269329        1.1532559200
  C        11.5076107265        1.8900618560        0.4404649222
  H        12.1005193635        1.3038025850       14.5692930888
  H        13.6409140809        0.8567116864       14.8627783981
  C        13.2259129863        2.6618785275       15.9323685676
  C         7.0438733029        8.2610270429       16.0845574411
  H        13.1199324577        5.2944404878        5.5912018590
  H        13.5230208678        5.1607191805        4.0107838458
  C        14.5332452234        6.7932915378        4.9252158119
  H         7.9121993290        5.1462435027        3.6938993211
  H         8.6622133721        5.1537921585        2.1177403628
  C         7.3170109344        6.7339665876        2.2839038865
  C        11.6670217949        0.5061013468        0.3566262490
  C        11.6888802699        2.6508501502       -0.8250505024
  H        12.6463129450        3.5711311783       15.6922539839
  H        14.2519272763        2.9353081518       16.0978800497
  C        12.5096312960        2.0822814253       17.2141852242
  H         7.4511041389        9.2536071752       16.1747519561
  C         6.6944289272        7.8515079296       17.3223335136
  H        14.4190226425        7.2326998090        5.8984339162
  H        14.6306556034        7.5561811872        4.1587638810
  C        15.7436603589        5.9737931602        4.9806704109
  H         7.0156976123        7.4094087969        3.0297984510
  H         7.8083983358        7.4403844179        1.5377053979
  C         6.1685530657        5.9270121273        1.6068522660
  N        11.3300624408       -0.4419134950        1.3407010875
  C        12.0577566044       -0.1529978911       -0.8600997619
  C        12.1954903213        2.0753466665       -1.9618487120
  H        11.5567653605        3.7523520010       -0.7300391987
  H        12.5269867266        2.7611555828       18.0870354144
  H        12.7735745499        1.0631273865       17.4685695316
  H        11.4813813021        2.0267902726       16.9482357373
  S         6.1917658638        6.3214877956       17.8097261260
  C         6.5330829898        8.8492577501       18.3633197868
  H        15.5361937243        4.8917802804        5.2715477745
  H        16.1494024141        5.9864897696        3.9777355051
  C        16.7752624728        6.5454206379        6.0453826227
  H         5.8094959749        5.1885223765        2.3277180000
  H         6.5349443377        5.3763116806        0.7465261200
  C         5.0105954044        6.8527622336        1.1666649527
  S        11.5712910971       -1.8986360964        0.7826525919
  N        12.1277722095       -1.5567174657       -0.7142951000
  C        12.3710459577        0.6198520761       -2.0236368296
  H        12.4707070125        2.7641158698       -2.7535091301
  C         6.0871585406        6.8902904627       19.4396238741
  N         6.1874032319        8.2391305976       19.5137458141
  O         6.6241570431       10.0569071120       18.1438755030
  H        17.4251423445        7.2090890067        5.4454176907
  H        16.4032787782        7.3075420772        6.7135044775
  C        17.7142820335        5.4677994065        6.6177428069
  H         5.5124083159        7.5337247590        0.5061658384
  H         4.4038393449        6.1687554250        0.5239460480
  C         4.0533882187        7.3938084362        2.2275469931
  C        12.6593868934       -0.1603459788       -3.2154552712
  S         5.4012958966        6.0928643402       20.8654265467
  C         6.0410995863        9.0529619795       20.7124910672
  H        17.1541442917        4.8570419774        7.2916222533
  H        17.9638353465        4.7960155342        5.7142848693
  C        18.9238130921        6.0285279222        7.3363563574
  H         4.7005546635        7.7337837815        3.0067008460
  H         3.5071826754        6.6286948859        2.6830907696
  C         3.1603603629        8.5450275953        1.7527818168
  H        12.4521903869       -1.2558061900       -3.1129737184
  C        13.1990620788        0.2083049873       -4.4320989669
  H         5.1175913848        8.8264235292       21.2415511895
  H         6.0440474311       10.0849095262       20.4569782591
  C         7.1851580227        8.6720462486       21.6562402855
  H        19.2155684298        5.2710697936        8.1188560189
  H        18.7258284787        6.8523257400        7.9873547371
  C        20.1818413439        6.1649527283        6.4781287189
  H         2.7661373204        8.2675282201        0.7541668286
  H         2.3733550154        8.6797910958        2.4508342323
  C         3.8799760906        9.8490292596        1.7094371292
  S        13.7668003704        1.7751843105       -4.8497578555
  C        13.3332608471       -0.8552899078       -5.4347358694
  H         8.0337358414        9.3294840662       21.4680062736
  H         7.4967907901        7.6889967575       21.4145282219
  H         6.8801723705        8.7795081112       22.6698230886
  H        20.3808687173        5.2161190784        5.9140782069
  H        19.9129374582        6.9299500424        5.7328591237
  H        21.0030038012        6.4343376210        7.1514750167
  H         4.3048876429       10.2354526192        2.6512045211
  H         4.7719225235        9.6406381463        1.1009757626
  H         3.2672363912       10.6053831357        1.2843285701
  C        14.0933465871        0.9704493953       -6.4285940063
  N        13.9551477727       -0.3837908317       -6.5524773937
  O        13.0733538990       -2.0641292376       -5.2744765968
  S        14.5207407725        1.8731473226       -7.8551235829
  C        14.0861978112       -1.1763230554       -7.7675404571
  H        14.4673028611       -2.1416894443       -7.5418753897
  H        14.8235461421       -0.7417680283       -8.4387846763
  C        12.7789229498       -1.3220458007       -8.5321961431
  H        12.0014039796       -0.7726752106       -7.9680218594
  H        12.5690302353       -2.3954687027       -8.6299537995
  H        12.8988472918       -1.0453955107       -9.5217636919
  H        -4.2895274193       14.3963818828       16.2430758755
  C        -3.6426973505       13.5178633574       16.3535607720
  H        -4.3044368869       12.6848221509       16.4472233517
  C        -2.6106413724       13.6881087327       17.4333732379
  C        -2.9721366799       13.2291133211       15.0327691568
  C        -3.1556755920       13.5242753581       18.8622747433
  H        -1.7641811565       12.9957527486       17.3307294309
  H        -2.2893304278       14.6852413899       17.3716294874
  H        -3.0410473655       12.1095197643       14.8154543405
  H        -3.2530660844       13.7613333717       14.1634792162
  H        -1.8974178664       13.3784230287       15.1746800932
  C        -1.9592044055       13.4422874388       19.8506559332
  H        -3.7195657954       12.5702866251       18.9652157190
  H        -3.8458531603       14.2930136789       19.1988235826
  C        -2.4329079931       13.6703227617       21.2526392341
  H        -1.4304110018       12.5045286528       19.6177025327
  H        -1.2969371073       14.2241948130       19.5977417091
  C        -1.4308572875       13.0570566231       22.1771222746
  H        -3.3879234052       13.1269023961       21.3937129322
  H        -2.7009554727       14.7167248785       21.3565872036
  C        -0.2210793905       13.9959413714       22.2846236342
  H        -1.8881513964       12.9422609344       23.0947836567
  H        -1.1550504760       12.0567448354       21.9814234426
  C         0.9091294209       13.2378346051       23.0304564227
  H         0.1386248484       14.2762333318       21.3402433689
  H        -0.5791968376       14.7696978329       22.9252017345
  C         1.4344649708       11.9610105514       22.3837456958
  C         0.4577591781       12.5815273020       24.2717218022
  C         2.0774067024       14.2134899359       23.3566107601
  C         1.1747228136       10.8092450432       23.1286771483
  C         1.9482270180       11.5508923107       21.0855081423
  C         0.6252884559       11.2526388560       24.3964677908
  C        -0.0257264801       13.2011945559       25.3740524926
  H         2.3784533072       14.6213062217       22.3583201838
  H         1.6966311980       15.0635178602       24.0198801416
  C         3.2997756007       13.6354175755       24.0474909702
  S         1.6972208557        9.3028384127       22.4389784616
  C         2.1900713700       10.1684631452       20.9660011643
  H         2.2332073396       12.3447077763       20.3522726768
  C         0.2946672872       10.6703771614       25.5452707286
  H         0.0393899344       14.2701005822       25.3160215483
  C        -0.3417914816       12.6431740068       26.5506082351
  H         3.7441148631       12.8374519454       23.4541714857
  H         2.9312444074       13.0661333711       24.9452612911
  C         4.3973574340       14.6401073580       24.4790795957
  C         2.6779688938        9.5175010469       19.7044755950
  C        -0.2194384402       11.2969345012       26.6895007161
  H         0.4513190645        9.5617811861       25.5731436254
  C        -0.6409859732       13.0473936639       27.8758309686
  H         4.9345088542       14.0892827489       25.3151519683
  H         3.9216623503       15.5382101341       24.9329692104
  C         5.2758250719       14.9445524452       23.2160196394
  C         2.6471930320        8.1036336160       19.4887696418
  C         3.0635720897       10.3986922751       18.6116241574
  C        -0.6456585411       10.5769452140       28.0340097869
  C        -0.8189438320       11.9412608540       28.6981988008
  S        -0.8537304394       14.5180054874       28.5958862883
  H         5.5450501096       15.9656826504       23.4164133745
  H         4.4949109239       15.0456954467       22.4267979410
  C         6.3656733554       13.9656518629       22.8456654535
  N         2.1780622355        7.1236638799       20.3788160573
  C         2.9240928788        7.5466435462       18.2401634595
  C         3.3562725137        9.7968713661       17.3394908670
  H         3.1486972401       11.5048143247       18.6271485826
  C         0.5224504832        9.8408292571       28.7537428065
  C        -1.8595546331        9.6363233262       27.9052236816
  C        -1.2984281784       12.2938296241       29.9516516405
  C        -1.2178979517       13.6635963044       30.0859132458
  H         7.2849083752       14.4657593246       22.5327514713
  H         6.7575935878       13.4580930008       23.7991877645
  C         6.0177594135       12.9131773643       21.7605849217
  S         2.2610028891        5.6295450324       19.6916596418
  N         2.7295588338        6.1129544509       18.2143456122
  C         3.2160053266        8.3089734663       17.0938473820
  H         3.6466907259       10.4108274155       16.4818230199
  H         0.5418175669        8.7795899291       28.3777922727
  H         0.2559461300        9.8600543197       29.8142820054
  C         1.8462646866       10.5587190883       28.6912466457
  H        -1.5947414174        8.8880824408       27.1402445900
  H        -1.9603361710        9.1735044796       28.8954648121
  C        -3.1666273832       10.3532319843       27.4714253107
  H        -1.5091313512       11.4657895626       30.6572324759
  C        -1.3710150396       14.3264787765       31.4277729505
  H         5.1839199556       12.3002394468       21.9023526118
  H         6.7721795071       12.1412317220       21.7680034452
  C         5.7196445270       13.5486971906       20.4396820234
  C         3.5064708002        7.7135879172       15.8090101017
  H         2.1470133742       10.9388898835       27.7334119776
  H         1.7043634874       11.5013329703       29.2831286750
  C         2.9074048715        9.6031684240       29.2479889536
  H        -3.1251974324       10.6472998194       26.4630710975
  H        -3.3294488273       11.2136295601       28.0934919156
  C        -4.3639462742        9.4143164443       27.5392413179
  C        -1.4941244587       15.6888725599       31.5945322411
  C        -1.5995749475       13.5557844004       32.6231028336
  H         5.0876733424       12.8128628841       19.9650807640
  H         5.0362908612       14.3843382049       20.5056210195
  C         6.9337167218       13.8404218178       19.5098362870
  H         3.4044641031        6.6121225175       15.8063401684
  C         3.7353108860        8.2050610782       14.5823719694
  H         3.1052715735        8.9385413063       28.4303623005
  H         2.4314916971        8.8772898085       29.9323819259
  C         4.1802137954       10.2881871909       29.6569555731
  H        -4.3845117270        8.6978286897       26.6642488023
  H        -4.2665177369        8.8579326767       28.4314351171
  C        -5.7957552739        9.9315544235       27.4558583513
  N        -1.3914732987       16.5265045513       30.4775076052
  C        -1.8025724609       16.3203242451       32.7452033461
  C        -2.0119912111       14.1442880174       33.8434645256
  H        -1.4869184099       12.4988722885       32.5732166794
  H         6.7372978155       14.2847422009       18.5544821553
  H         7.7410338997       14.3288692476       20.0990184370
  H         7.3503378002       12.8471385963       19.2148067823
  S         3.9309259286        9.8816451233       14.0473726833
  C         3.8947153795        7.2114507403       13.4448232528
  H         4.3629117015       11.0554226503       28.9017311437
  H         4.0534991027       10.6558306223       30.6824729282
  C         5.5214570274        9.4242714243       29.5750668468
  H        -5.8989114555       10.4969147185       28.3190128541
  H        -6.5442128853        9.1093171486       27.5796394947
  C        -6.0599668090       10.7592404190       26.1014242666
  S        -1.7404805715       18.0477966911       30.9396490509
  N        -1.8351421387       17.7292123333       32.5432960811
  C        -2.0273387590       15.6811137559       33.9396642343
  H        -2.3577339010       13.6152438054       34.6803143575
  C         4.0089042797        9.1654640193       12.4168132879
  N         4.0223137983        7.8489215444       12.2623058331
  O         3.9965369633        5.9796886752       13.6521064026
  H         6.4073623057       10.0724776713       29.3478517929
  H         5.4846449456        8.7197793628       28.7628855708
  C         5.9090896558        8.5790363932       30.7448851348
  H        -5.4933157737       11.6897469576       25.9788596176
  H        -5.6783134769       10.1055257927       25.2804775401
  C        -7.5760137354       11.1866359015       26.0590518588
  C        -2.4415596334       16.4869025546       35.0252096502
  S         4.3871131606       10.2152419976       11.0964652619
  C         4.0442086954        7.1472902743       11.0314099464
  H         6.9616313995        8.6688719935       30.9800603254
  H         5.5059579672        9.0820833463       31.6339450640
  C         5.4125890037        7.1353810275       30.5823665705
  H        -7.4545052036       12.2095248767       25.7991444323
  H        -7.9906461432       11.0863049471       27.0591730442
  C        -8.4235408634       10.4686938139       25.0128770059
  H        -2.2379935930       17.5391125758       34.9349527786
  C        -3.0236899982       16.1365010594       36.2063901288
  H         4.6725624590        7.5009130441       10.2010396447
  H         4.3430131606        6.1302607718       11.2974599770
  C         2.6128254721        7.0373546591       10.4362851376
  H         6.0393129073        6.6001619778       29.8384737341
  H         4.3475024886        7.1468598916       30.2448746191
  C         5.4779238318        6.3019096821       31.9092037748
  H        -8.2555825793       10.8237584741       23.9730441027
  H        -8.1635186216        9.4502851562       25.0105996549
  C        -9.9001650763       10.4842531013       25.4382332704
  S        -3.3667582571       14.5055139667       36.7565979572
  C        -3.2329769352       17.2101972686       37.1499685438
  H         2.4231474139        7.9325100513        9.8736258850
  H         2.4338193516        6.0963233041        9.8252942244
  H         1.8551226935        7.0505318690       11.1944303229
  H         5.3489420479        6.8760069086       32.7884314136
  H         6.4461370564        5.7583664364       32.1158188058
  H         4.6684181558        5.4655010816       31.9404296591
  H       -10.2334808190       11.4625232668       25.7886657063
  H        -9.9991789773        9.7984943928       26.2943689273
  H       -10.6092485459       10.0920210605       24.6398038295
  C        -3.6473315121       15.3090897557       38.2783861548
  N        -3.6932229639       16.6919964889       38.3152330589
  O        -2.9518171451       18.3971608724       36.9768971772
  S        -4.0122678520       14.4203830398       39.8260561768
  C        -3.7802127812       17.4724523912       39.5320030995
  H        -4.3439446340       18.4474773834       39.3887701943
  H        -4.4027163820       16.9330957535       40.2183386990
  C        -2.3919144055       17.6237022680       40.2560438968
  H        -1.8685222867       16.7202322008       40.5203123336
  H        -1.8342973278       18.0818434744       39.5325736708
  H        -2.4553537268       18.2990264832       41.1142226367
