352
i=
  H         2.7142402660        3.2602939025       13.0798376500
  C         2.8617972023        2.2712169730       12.6504818712
  H         2.4398989067        1.4411596610       13.2131394962
  C         2.4243895703        2.1523376694       11.1785168396
  C         4.3494662307        1.9510904190       12.8517660815
  C         3.4259156547        2.7503529876       10.1474999061
  H         1.4801729622        2.4915966941       11.0687680297
  H         2.4946804305        1.0829092081       10.9411652257
  H         4.4100322152        0.8466133870       12.5801080623
  H         4.6060991663        2.0729654384       13.9068590615
  H         5.0002932009        2.4465934435       12.2197783392
  C         4.2870634691        1.7101828735        9.4256422771
  H         2.8340533237        3.1673846698        9.3359236244
  H         3.9821867408        3.5831473975       10.5177495057
  C         5.0797878379        2.2579586288        8.1693847719
  H         3.6370124589        0.9496411406        9.0964169649
  H         4.8664102718        1.1725619717       10.1641321731
  C         6.3267944054        3.0032411767        8.4722195343
  H         4.5132266189        2.9531319953        7.5615961410
  H         5.2716360315        1.3935474111        7.5146381161
  C         7.3785708641        2.0772896643        8.9539617159
  H         6.7162176042        3.5516400264        7.6049685057
  H         6.0875028113        3.6814398489        9.3123072584
  C         8.7339704747        2.7374517445        9.2813349596
  H         7.5456738342        1.2359166067        8.2797403402
  H         7.0101214241        1.6633440252        9.8423163166
  C         8.4743069270        4.0327484414       10.0112837234
  C         9.2593133434        3.4319350202        8.0558711657
  C         9.7937286882        1.9115851045       10.0581998301
  C         8.6916954091        5.1422042483        9.2147431343
  C         7.8979233660        4.3663316740       11.2461195591
  C         9.2200778964        4.7938997251        8.0036179008
  C         9.8255940425        2.8092182814        6.9696890179
  H         9.3653750037        1.5203504776       10.9759805475
  H        10.1284112969        1.0271570358        9.4640214080
  C        11.1128382400        2.6716081296       10.4144459748
  S         8.0866782088        6.6199377397        9.9274486154
  C         7.6730633286        5.7387992062       11.3654128356
  H         7.8589474945        3.7038967806       12.0450288170
  C         9.8071884394        5.4246092165        6.9614231960
  H         9.8906196765        1.7624068291        7.0892551727
  C        10.3203862292        3.4138410912        5.8824632875
  H        10.9792742057        3.7285990538       10.7293348059
  H        11.7256988944        2.7110791651        9.5582693122
  C        11.9945126957        1.9312015160       11.4101983161
  C         7.4498446746        6.3703824825       12.6915391967
  C        10.3012478751        4.7506301872        5.8118615646
  H         9.7429101159        6.5166960599        6.9708817627
  C        10.7195719533        3.0459975924        4.5994992123
  H        13.0539798419        2.1622835540       11.2231475603
  H        11.8105646587        0.8045977470       11.4908141446
  C        11.7311979201        2.4755305836       12.7409132915
  C         7.3883621085        7.7318277344       12.9377791573
  C         7.1099401263        5.4860403559       13.8527301207
  C        10.6506983849        5.4983236590        4.5039726364
  C        10.9504336082        4.1380267435        3.8100376697
  S        11.0805539947        1.5629230689        3.7646342770
  H        12.2928563218        3.2942334115       13.0821456963
  H        10.6459175195        2.7525810085       12.8880710168
  C        12.0218231491        1.3629205846       13.7691217600
  N         7.5894876032        8.8030458604       11.9807457735
  C         7.0632601703        8.2724086949       14.2030400963
  C         6.6578687061        6.0334125550       15.0709934273
  H         7.0778780336        4.4741756469       13.7856510356
  C        11.9079167672        6.3945801418        4.5080074414
  C         9.3484364979        6.2386612908        3.9605872141
  C        11.3583902280        3.7965747730        2.4925954929
  C        11.4287350953        2.4159175595        2.3139901206
  H        13.0298870506        1.1269357043       13.7833215631
  H        11.4760629362        0.3804381996       13.6484738942
  C        11.7587526300        1.9203272595       15.1445445215
  S         7.4592467597       10.2066418604       12.8160931799
  N         7.0353041082        9.6287584787       14.2215053587
  C         6.7285732002        7.4952930818       15.3295651173
  H         6.3652456666        5.3817381933       15.8903766765
  H        11.6722125921        7.2381304228        5.1415374291
  H        12.1604952931        6.7506609474        3.4791371344
  C        13.1357812061        5.7479094774        5.2464084667
  H         9.1144974297        6.9762041052        4.6984815839
  H         9.6720668326        6.6446279606        3.0144045997
  C         8.0841361390        5.3466073607        3.7476594535
  H        11.5357762462        4.5613048839        1.7427486541
  C        11.7985109934        1.6498227808        1.0351188343
  H        11.4603502628        2.9283263571       14.9410445869
  H        10.8306039630        1.4656385772       15.5028520581
  C        12.8547270859        1.8106641744       16.2636462718
  C         6.4512050325        8.2605620882       16.5051593491
  H        12.8420578236        5.1241383381        6.0826843910
  H        13.5499928249        5.1048596039        4.4915265766
  C        14.2202457180        6.6815311450        5.6918867652
  H         7.7801638847        4.7309316252        4.5940696587
  H         8.3457358681        4.5358916441        3.0479430595
  C         6.8592839556        6.2188867687        3.3126366705
  C        11.7952770597        0.2619908613        0.8859577786
  C        12.0515074004        2.4481226019       -0.2429118907
  H        13.8098059007        1.9959113063       15.7830224207
  H        12.9115865320        0.8386708524       16.7335553101
  C        12.8042530940        2.9107361447       17.2451026120
  H         6.4349489786        9.3089385205       16.3835110986
  C         6.1651325077        7.9001468854       17.7961162983
  H        13.7052998301        7.3481406100        6.3982497155
  H        14.7245201650        7.2721913339        4.8804566537
  C        15.2903007492        6.0078360760        6.5418048206
  H         5.9756083870        5.6062365019        3.4358034363
  H         6.6950822029        7.0761045736        3.9188391639
  C         6.8454746946        6.6521771730        1.8061574338
  N        11.6272247642       -0.6802023610        1.9045968150
  C        12.0047551034       -0.4058517893       -0.2920445841
  C        12.3590111129        1.7634552836       -1.4538850245
  H        11.9130668395        3.5429889409       -0.2662769299
  H        13.8534974030        3.0927548942       17.5223180347
  H        12.2464504198        2.6603124962       18.1384108146
  H        12.4472989136        3.8553398747       16.8976094308
  S         5.8562841868        6.3083661324       18.3426416102
  C         6.0578248778        8.9871605797       18.8077201753
  H        15.1621627511        6.4215395645        7.5224932326
  H        15.1583910321        4.9164709053        6.6750310460
  C        16.7043677322        6.2057967325        6.0518975685
  H         7.4694456895        6.0210132713        1.1635158251
  H         7.3705595660        7.5919224639        1.9310479693
  C         5.4411192482        6.9575673624        1.3371738903
  S        11.6558666816       -2.2072335950        1.4508454478
  N        12.0056504391       -1.7947070844       -0.1361905063
  C        12.3404210957        0.2987823219       -1.4873506727
  H        12.4589816496        2.2758078357       -2.3825944873
  C         5.4522449756        7.1233052497       19.9072475695
  N         5.6540116876        8.4559075262       19.9902794776
  O         6.2732818332       10.1574862141       18.5897698924
  H        16.8978290979        5.9022700153        5.0243765422
  H        16.9355395750        7.3209859198        5.9879132985
  C        17.6112168012        5.4027717571        7.0336853441
  H         5.3885967635        7.1335011313        0.2517949479
  H         4.8840454206        6.0474962306        1.6020479557
  C         4.8952817339        8.2671795501        1.9125741633
  C        12.6769653007       -0.4381329386       -2.6762378430
  S         5.2545025313        6.3040319551       21.4192501441
  C         5.6760758952        9.1592338431       21.2219596095
  H        17.1153693015        5.3553534831        7.9779026350
  H        17.7015818566        4.3858920374        6.7016405294
  C        18.9182229845        6.0758485017        7.3146215936
  H         5.7143709207        8.9834696038        1.7949401652
  H         4.7864730368        8.0911521556        2.9106931562
  C         3.6305889807        8.8661069518        1.3967290774
  H        12.6312606215       -1.5363199129       -2.5691128213
  C        13.2652436636       -0.0596922861       -3.9080589935
  H         5.0938266530        8.7230639683       22.0771458678
  H         5.1001394573       10.0711636636       21.0603162379
  C         7.0306306406        9.5058870857       21.8198964898
  H        19.4010176328        5.4239525736        8.0059470871
  H        18.8248483696        7.0989693552        7.6346330635
  C        19.7860463928        5.8965321691        6.0828652341
  H         3.8721121517        9.1490723828        0.3570341117
  H         2.8921369489        8.0927875043        1.4216081232
  C         3.3116157560       10.1197240267        2.2861520099
  S        13.8710387139        1.5087098012       -4.3938960055
  C        13.4225454823       -1.1487367375       -4.8745595964
  H         7.7260532321        9.7257890798       21.0565992816
  H         7.5121549931        8.6515781692       22.3291201482
  H         7.0749227330       10.4137329571       22.3708014743
  H        19.5713201023        6.4177344780        5.1500387438
  H        20.7978754597        6.1065464452        6.2944368162
  H        19.7259372374        4.8654545376        5.6836952049
  H         3.7765041246        9.9188762127        3.2776209186
  H         3.5707903388       11.0816755336        1.8456490424
  H         2.2891221318       10.1142480237        2.4060646304
  C        14.1354774113        0.6641914694       -5.9506658321
  N        14.0114543719       -0.6508168612       -5.9547213434
  O        13.0416081149       -2.2800736903       -4.6609081773
  S        14.8206919986        1.3580894666       -7.4344158174
  C        14.1806126338       -1.4735306254       -7.1293982335
  H        14.1069458698       -2.5244303350       -6.9303514650
  H        15.1521280575       -1.3371981718       -7.5997264575
  C        13.0593811894       -1.3616676537       -8.2053401458
  H        12.1122969069       -1.3018183873       -7.7478004831
  H        13.1056773583       -2.3021748395       -8.8527433128
  H        13.3904773515       -0.5102706990       -8.7995500553
  H        -2.2931278548       12.2937035534       17.2629124486
  C        -2.3626535564       13.1780107854       16.7219436556
  H        -1.3183002628       13.5964348946       16.6808271084
  C        -3.2185679979       14.1898238014       17.6264619210
  C        -2.8873999001       12.8690294046       15.2739980784
  C        -3.6991146226       13.5792456463       18.9887012559
  H        -2.5865723084       15.0400288771       17.9916174115
  H        -4.0794497322       14.5100408833       16.9752855072
  H        -2.5268418622       11.9108206971       14.8628800013
  H        -3.9561984860       12.8541753899       15.2877363625
  H        -2.5725167771       13.6637361161       14.6192169131
  C        -2.5079348371       13.2472635089       19.8850803723
  H        -4.3691623447       12.7193901071       18.9574637277
  H        -4.2428408490       14.3083305527       19.5998682915
  C        -3.0156384699       12.8831086413       21.3217841876
  H        -2.0026383188       12.3478191294       19.3759178896
  H        -1.7967533312       14.0724834630       19.7952968235
  C        -1.9564939906       12.3116764763       22.3159452910
  H        -3.8434202203       12.2079686608       21.3391933096
  H        -3.3811860052       13.7749021618       21.7326123513
  C        -0.8419418197       13.3374825557       22.5334139523
  H        -2.3895934427       12.1838040630       23.3265582259
  H        -1.5938723591       11.3907325022       21.8926773867
  C         0.3360415782       12.7261437156       23.3111422430
  H        -0.4599579353       13.8276780498       21.6221576152
  H        -1.2173023661       14.1613523170       23.1490058113
  C         0.7569825921       11.4167105017       22.6539151064
  C         0.0147507957       12.0116316772       24.6331465454
  C         1.5292153202       13.7930251054       23.4815235710
  C         0.7960742982       10.3460246400       23.5414509626
  C         1.3577241451       11.0674929483       21.4192949820
  C         0.1996810850       10.6690371347       24.7705026739
  C        -0.3265156139       12.5867037689       25.8278291276
  H         1.6479120102       14.3516016778       22.5802190097
  H         1.1777324695       14.6049485968       24.1621613662
  C         2.9021657356       13.1923126651       24.0535087835
  S         1.4251996666        8.9156217142       22.9284882440
  C         1.7121584735        9.7553857739       21.3851042489
  H         1.4773081164       11.7915352955       20.6287877356
  C        -0.1380548562       10.0242794313       25.9462011362
  H        -0.3704451027       13.6614179034       25.7068175410
  C        -0.5297814585       11.9719367934       27.0021906467
  H         3.3076837335       12.3785133962       23.5198729185
  H         2.6378015941       12.7372150446       24.9864314632
  C         3.9855300022       14.2454156511       24.3840273225
  C         2.1827009683        9.0261647960       20.1667519449
  C        -0.4658505477       10.6032018588       27.1657403575
  H        -0.0809429390        8.9506225920       25.9104419098
  C        -0.8475551878       12.4310459466       28.2282868245
  H         4.6781838868       13.9282274583       25.2157804769
  H         3.5558036466       15.1874334313       24.6751516707
  C         4.7703590810       14.6137769119       23.0828792481
  C         2.0959849750        7.6463341943       19.9591605315
  C         2.5463737041        9.8338770610       19.0108868280
  C        -0.7828020877        9.9756535375       28.4362713722
  C        -1.0346726787       11.3514703342       29.0407491849
  S        -1.2074119785       13.9667874024       28.8560385971
  H         5.4803045814       15.4169156303       23.3079117339
  H         4.0774777216       15.0163520001       22.3196132319
  C         5.6854859622       13.5438452985       22.3853136643
  N         1.7235811242        6.6763438230       20.9225076897
  C         2.4542744101        7.0494279098       18.7749847955
  C         2.9106075295        9.2346408014       17.7929352326
  H         2.5594308536       10.9511981476       18.9949034637
  C         0.3981729213        9.2060174413       29.1191098063
  C        -2.0958061671        9.1561502709       28.4214390767
  C        -1.5002733935       11.7706105217       30.2575315981
  C        -1.4429425747       13.1688515204       30.3384796685
  H         6.7180174556       13.8900903078       22.4964997992
  H         5.5730712692       12.5146613757       22.8491701947
  C         5.2989802572       13.4552167333       20.8607467473
  S         1.9177792807        5.1973417911       20.2747176611
  N         2.3376739840        5.7166283531       18.8032798597
  C         2.7979614433        7.7281741704       17.6267655484
  H         3.0948247383        9.9915542820       17.0042833642
  H         0.9802504038        8.7326833889       28.2740730159
  H        -0.0189275053        8.5096811409       29.8118620171
  C         1.4630147467       10.0457879421       29.9175144752
  H        -2.0069236277        8.2529140435       27.8855174474
  H        -2.3897056860        8.9642228570       29.4189970124
  C        -3.2005647631        9.9264753682       27.7297118401
  H        -1.6453806176       11.0759246122       31.0580326936
  C        -1.7562412270       14.0413393389       31.5982671448
  H         4.7639536014       14.3129789038       20.4812707200
  H         4.7248915698       12.6057499709       20.6711901642
  C         6.5075768460       13.4653319627       19.9627196321
  C         3.0031292940        7.0233135892       16.3968468082
  H         1.6377747705       10.9137244987       29.2978822044
  H         1.0066007994       10.3547571168       30.8288487376
  C         2.7785604719        9.3077252756       30.2539032273
  H        -2.9177138563       10.3455547148       26.8000352055
  H        -3.3432228774       10.8164062036       28.3552457612
  C        -4.4738449855        9.1083645994       27.3991249524
  C        -1.8833796575       15.4043627726       31.6095208981
  C        -1.8940472786       13.3121006920       32.9307745511
  H         7.1250473748       14.2840223290       20.3626176536
  H         6.8769244449       12.4612898848       20.1013203404
  C         6.3116902164       13.7568035981       18.4634831023
  H         3.1047748603        5.9471933098       16.4409211008
  C         3.2329663532        7.4560461509       15.1151920663
  H         3.1781975573        8.7730085518       29.4239591010
  H         2.5652773163        8.5215693934       30.9083315679
  C         3.8863263510       10.2070279722       30.8311894388
  H        -4.3678526550        8.4101095925       26.5603697035
  H        -4.6796660685        8.4600638697       28.3357768374
  C        -5.6769455826        9.9786497380       27.1333602309
  N        -1.7782753568       16.2608313571       30.5250295850
  C        -2.1199900672       16.1119744438       32.8019668300
  C        -2.2265290965       13.9945823774       34.0736770806
  H        -1.7334427059       12.2274595124       33.0645156388
  H         7.1474383875       14.3163302769       18.1353635082
  H         6.1945656886       12.8505365061       17.8079513629
  H         5.4391449134       14.4493190126       18.2108097082
  S         3.5625403786        9.0678871834       14.6226792132
  C         3.5658522280        6.4058288615       14.0523077883
  H         3.8969407445       11.1418629692       30.3012327906
  H         3.6085467792       10.4850081033       31.8760737157
  C         5.2587139620        9.5600990328       30.8097736783
  H        -5.7255725117       10.7896688423       27.8968080479
  H        -6.5301123130        9.3331819076       27.3644092580
  C        -5.7171244074       10.3483714923       25.6799618220
  S        -1.7810321288       17.7920599201       31.0772863268
  N        -1.9316171078       17.4886135754       32.6307057758
  C        -2.3663383318       15.4628022811       34.0734189811
  H        -2.1229534496       13.5664883437       35.0630348082
  C         3.7683056421        8.3657737120       12.9703547269
  N         3.7926177654        6.9985219048       12.9184308550
  O         3.4796340837        5.1845001843       14.2523460301
  H         5.8886631785       10.3187796322       31.2369094874
  H         5.5422893300        9.4413921609       29.7540086931
  C         5.3967447600        8.2656046127       31.6746542998
  H        -4.7113592088       10.7330750674       25.3828511443
  H        -5.8577443493        9.4548897890       25.0018873250
  C        -6.8364650869       11.3455311577       25.3551770474
  C        -2.6076036558       16.2862963994       35.2374373499
  S         4.2409753121        9.2636209231       11.5402706121
  C         3.8285793128        6.3275758322       11.6696237242
  H         6.0156622266        8.5850871971       32.4749655473
  H         4.4779944872        7.9266266887       32.0649045787
  C         6.0240182826        7.0832309728       30.8673607252
  H        -6.6801602098       11.7729639988       24.3786462620
  H        -6.7266414662       12.0854990827       26.1119653548
  C        -8.2182788943       10.6309401777       25.3871455810
  H        -2.2224104512       17.2923084330       35.1276022335
  C        -3.1142070840       16.0456630170       36.4563196455
  H         4.5837569045        6.6882721833       10.9427525660
  H         4.0000711226        5.2490435083       11.8482586466
  C         2.4359243218        6.3743878091       11.0506490915
  H         6.8692115689        7.3988217179       30.2369455448
  H         5.3691205651        6.8243537213       30.0715890906
  C         6.4518804144        5.9554321061       31.8027608710
  H        -8.6927996050       10.5304533675       24.3926965619
  H        -8.1294880411        9.5840791556       25.6295590182
  C        -9.1515034028       11.2688742059       26.4901529677
  S        -3.7739269331       14.5445948340       37.0524939014
  C        -3.2493332380       17.2344718836       37.2837957517
  H         1.6264581648        6.6261264135       11.8344127406
  H         2.3788749178        7.1987472022       10.2764824423
  H         2.2024010073        5.3172013250       10.7043831497
  H         7.4204432071        5.5566141539       31.5073389521
  H         5.7097559318        5.1961608365       31.8181455387
  H         6.4778332697        6.3825996677       32.7435388331
  H        -9.0656094121       12.3230071998       26.2666799809
  H        -8.9478874447       11.0215870293       27.5617194725
  H       -10.0999511027       10.8372784980       26.2953054365
  C        -4.0634460981       15.4787707719       38.5135176775
  N        -3.8098367745       16.8239406587       38.4158163621
  O        -2.9303572645       18.3836497902       36.9513273134
  S        -4.7177018755       14.8290838513       39.9984761122
  C        -4.0030322859       17.7582061825       39.5507934456
  H        -4.1013806392       18.6813159764       38.9975020911
  H        -4.8768777834       17.6340548443       40.1243392367
  C        -2.7664267591       17.6673393529       40.4862997670
  H        -2.8154847108       18.5590140845       41.1014693706
  H        -2.8888334009       16.8902311717       41.1938473055
  H        -1.8513433456       17.5353184510       39.9137559542
