352
i=
  H         4.4938404319        1.1665770253       12.5735518772
  C         4.6646335497        2.2215986255       12.6597603592
  H         5.6824445272        2.5394101749       12.3857480621
  C         3.6736993938        2.8941156141       11.6873602867
  C         4.3504526088        2.6129398262       14.1907956193
  C         4.5149898922        3.1201498194       10.4339706028
  H         3.3679780580        3.9058239608       11.9865618907
  H         2.8650639632        2.2043277049       11.5289536952
  H         4.9878299099        2.0529248989       14.9268851656
  H         3.3023092012        2.5764200090       14.4519545017
  H         4.6051127722        3.6271738458       14.2648399628
  C         4.9405229746        1.7617302425        9.8326782173
  H         4.0541312568        3.6813695623        9.6890900892
  H         5.4447642210        3.7386015165       10.6434085748
  C         5.5029935570        1.8592778390        8.3900644942
  H         4.0568693194        1.1744711603        9.7659429385
  H         5.6905598821        1.3417881587       10.4703287022
  C         6.7624413121        2.7590335929        8.2624982581
  H         4.6832705383        2.1187434103        7.6676151628
  H         5.7253122792        0.8188457408        8.0897147781
  C         7.9458432232        2.0386089571        8.9227447636
  H         6.9786819064        3.0983147961        7.2626959175
  H         6.5600489055        3.6287637092        8.8365179720
  C         9.1623483455        2.9319616583        9.0129818436
  H         8.1578643032        1.1439599900        8.2971416391
  H         7.7492299176        1.5630926099        9.8238571813
  C         8.8498765755        4.3337370002        9.6440822845
  C         9.5344857685        3.6910496497        7.6703422259
  C        10.2857944352        2.1928951882        9.8228435268
  C         9.0806722763        5.4542611394        8.8523359507
  C         8.4680703872        4.7294547875       10.9365338574
  C         9.5583561686        5.0392848965        7.6100416062
  C         9.9770449357        3.0729152828        6.4884966711
  H         9.8282719341        1.9595648279       10.8226220282
  H        10.5655693546        1.2722893841        9.3006015525
  C        11.5294480605        3.0511601244        9.9707327689
  S         8.7483138013        6.9039997229        9.6530571100
  C         8.3405010061        6.0672135376       11.0701584181
  H         8.3854759053        3.9212614149       11.6867847920
  C         9.8704547440        5.6242041075        6.3991886626
  H         9.9877599002        1.9747518705        6.5737347474
  C        10.3823782840        3.7040872020        5.3691739753
  H        11.2049699679        4.0421281223       10.1019597951
  H        12.0590809377        3.0359013272        8.9913966489
  C        12.4870056678        2.6465092797       11.0568927912
  C         7.9082578307        6.8237163433       12.3917302260
  C        10.3067379285        5.0021942415        5.2464643557
  H         9.7236748072        6.6755619131        6.3211007295
  C        10.9005281958        3.2542197952        4.1687304776
  H        13.1630079525        3.4576191696       11.2213279903
  H        13.1889976779        1.8138415998       10.8400863274
  C        11.9294180938        2.4564013254       12.4255173992
  C         7.8481221649        8.2103579561       12.5965047466
  C         7.4958229071        5.9446004812       13.4987516679
  C        10.7335601106        5.7094110187        3.9135871453
  C        11.0194243940        4.2955841253        3.2775059537
  S        11.2114385218        1.6958607249        3.4391554351
  H        11.5018516058        3.3912832817       12.7068725385
  H        11.1319347011        1.7231401423       12.3544413601
  C        12.9628559293        2.1731125350       13.5448710665
  N         8.1329742668        9.1437959465       11.6449127166
  C         7.5761933976        8.6990474554       13.8341109262
  C         7.1759889110        6.4767635459       14.7134816834
  H         7.4887216915        4.8502182805       13.4955660597
  C        11.9948101335        6.5214087856        4.1038720668
  C         9.7106348685        6.4229440220        3.1072472370
  C        11.3177401575        3.8391024735        1.9864507604
  C        11.4911554070        2.5093670752        1.9157700582
  H        13.8849767903        2.6781010517       13.3216545867
  H        13.2485812773        1.1297422294       13.4691101799
  C        12.5266838611        2.5859480044       14.9257279330
  S         8.0652951391       10.6709980399       12.4472835932
  N         7.7343392634       10.0870339090       13.8495288724
  C         7.2130202568        7.9569232794       14.9246002939
  H         6.9721444012        5.8086881840       15.4888443950
  H        11.8785397918        7.2903111184        4.8714512391
  H        12.3251178201        7.0901082790        3.2322917336
  C        13.2593237860        5.7111184289        4.5048932656
  H         9.2268918625        7.1825288934        3.7849436544
  H        10.0739795921        7.0709503445        2.2883855680
  C         8.5637564485        5.5037952716        2.6482812138
  H        11.5697187923        4.5666766027        1.2208975078
  C        11.9301140832        1.8022960791        0.6884689306
  H        12.2945383237        3.5970101207       14.9642838659
  H        11.6092248662        2.1208207468       15.1155919095
  C        13.6937899420        2.4018335376       15.9142642410
  C         6.8600949532        8.6027916425       16.1574611938
  H        13.0835040318        5.2832024841        5.5167114477
  H        13.4246621549        4.8680797780        3.8213231980
  C        14.6528992652        6.4387644166        4.7222850863
  H         8.0615477168        5.0826538700        3.4680351941
  H         8.8691743302        4.6639186078        2.0654205984
  C         7.5227119488        6.1747018889        1.6768690110
  C        11.8968626995        0.3943972338        0.5704014309
  C        12.1448516581        2.4794073961       -0.5805622721
  H        14.4050311850        3.1607583465       15.7512732117
  H        14.2133465022        1.4623058634       15.8925334758
  C        13.3590730718        2.6803220044       17.4520725113
  H         6.7280774035        9.6764792077       16.0613156459
  C         6.7409908361        8.1104653934       17.4450075909
  H        14.4070174026        7.2590972421        5.3874226860
  H        15.0925431707        6.8205664836        3.7840136938
  C        15.6766411395        5.6076234363        5.5015295333
  H         7.5699443289        7.2656657145        1.8175810117
  H         7.7143464046        6.0184108047        0.6457533876
  C         6.1269135076        5.7326626804        2.0085513062
  N        11.5714115264       -0.4873888565        1.5826884734
  C        12.2326129980       -0.3269113535       -0.5422535053
  C        12.3911450995        1.7247697075       -1.7594824377
  H        11.9691492987        3.5273360729       -0.7218991792
  H        13.0263260890        1.7891859142       17.9484882514
  H        12.4676881287        3.4622157436       17.4484937423
  H        14.1630480038        3.1446950098       17.9609229755
  S         6.6708582384        6.4915717104       17.9388780874
  C         6.3500779791        9.1282091718       18.4552837299
  H        15.1742672481        5.2082316144        6.3136130876
  H        16.0347740047        4.8442371019        4.8446051711
  C        16.8563091055        6.3184325337        6.1481828762
  H         5.9121350682        5.6458932299        3.0796663184
  H         5.9764044219        4.6700840230        1.6400570520
  C         5.0899261519        6.6573765137        1.4991834612
  S        11.4878021940       -2.0135274078        1.0723818243
  N        12.1727732646       -1.7400973543       -0.3976958480
  C        12.5827677951        0.2828298546       -1.7464710104
  H        12.5037823755        2.2483666033       -2.6818288770
  C         6.2711612174        7.1955871394       19.5387269814
  N         6.0029313189        8.5358849711       19.6093037514
  O         6.3228263539       10.3158416488       18.1823320998
  H        17.4229605919        6.7164228759        5.2792203322
  H        16.5538741427        7.2093998908        6.7521700929
  C        17.8186139182        5.3935919025        6.9691728627
  H         5.5516811565        6.9349476853        0.5557311363
  H         4.2171998283        6.0689877269        1.2548947122
  C         4.6783910010        7.8283579605        2.3581649827
  C        12.8550324444       -0.5604529184       -2.9087706107
  S         5.6644461314        6.2928752098       20.8452175539
  C         5.8782885488        9.3224634635       20.7850364071
  H        17.4257759975        5.0371786604        7.9314195287
  H        17.9698436351        4.5161045279        6.3000198693
  C        19.1553179644        6.1133836330        7.1106583678
  H         5.3842671853        7.9404061695        3.2039408820
  H         3.7270210790        7.5741713707        2.7718040365
  C         4.6054334706        9.1122278834        1.5923154872
  H        12.3945401114       -1.5397892356       -2.8512065903
  C        13.4248396881       -0.2377505634       -4.0969477864
  H         5.2390653322        8.9947258931       21.6033105540
  H         5.3214254199       10.1959165725       20.4551658600
  C         7.3855262721        9.5248753300       21.2606763417
  H        19.5572572037        5.9879982553        8.0949704598
  H        18.9380301024        7.2096623987        7.1640195075
  C        20.0108661788        5.6250260011        5.9563976458
  H         4.2939088740        9.8785228684        2.2775084011
  H         5.5071566460        9.5318126550        1.0476542093
  C         3.4893294308        8.9494288828        0.6252517215
  S        14.1852967748        1.3111387581       -4.5332390615
  C        13.3565643573       -1.1961752317       -5.1767254510
  H         8.1070637397        8.6766661334       21.1989189146
  H         7.3735400109        9.8908608929       22.2850641161
  H         7.8047146506       10.3631856170       20.6791979350
  H        20.2002889572        4.5106740263        6.1283136671
  H        19.5080385699        5.6545581709        5.0082433603
  H        20.9368461193        6.1084338070        5.8764068723
  H         2.6304329017        8.4446641741        0.9991600937
  H         3.1819771188        9.8018252083        0.0112797833
  H         3.8794261674        8.2653931448       -0.1121976231
  C        14.4087133751        0.5327933992       -6.1477815061
  N        13.9551351965       -0.7208515449       -6.2500487114
  O        12.9173774952       -2.3172862636       -5.0430714133
  S        15.1449040866        1.2969168998       -7.5162145449
  C        14.1236534981       -1.6040127242       -7.4118150160
  H        14.1336006128       -2.6607054449       -7.0824211049
  H        15.0666215924       -1.5002595746       -7.8966677994
  C        13.0446270869       -1.2564041851       -8.4221378726
  H        12.9899664795       -0.1991558605       -8.6900608231
  H        12.1589275147       -1.4185131891       -7.8675572133
  H        13.1095425963       -2.0152862256       -9.2760434294
  H        -2.0479795199       15.1633710235       15.7349555440
  C        -2.6150308186       14.3761479502       16.2055701745
  H        -3.4667190717       14.9532407153       16.4077862904
  C        -2.0926289380       13.8499316105       17.5739414941
  C        -3.1241330276       13.2279963433       15.3201120253
  C        -3.1084299191       13.2083920951       18.4995806137
  H        -1.4200754225       13.0027201118       17.3024407220
  H        -1.4687284934       14.7252775610       18.0447305082
  H        -3.0245628658       13.4146625196       14.2011349502
  H        -2.5270525313       12.3553675362       15.5596188569
  H        -4.1075972988       12.8964450603       15.5320312202
  C        -2.5285470907       12.4422119568       19.6899134247
  H        -3.7164457989       12.6096572277       17.9665971941
  H        -3.7983840505       13.9885327582       18.8223623403
  C        -2.6208073880       13.1808196799       21.0469862690
  H        -3.0242595444       11.4677825608       19.7903408763
  H        -1.4440694721       12.1873952895       19.4112138197
  C        -1.8257254904       12.5329219648       22.1438890065
  H        -3.6876515998       13.0931259997       21.3649757020
  H        -2.3511453720       14.2917974167       21.0061790688
  C        -0.5557845855       13.4129837642       22.4252432809
  H        -2.3972454041       12.2973019821       23.0332939291
  H        -1.4270802757       11.5593877676       21.7232917268
  C         0.7114271864       12.8380631918       23.0066823174
  H        -0.2783447259       13.9498336103       21.4844771383
  H        -0.8392846728       14.2526747509       23.0780399503
  C         1.1322171492       11.4647187394       22.3556117966
  C         0.4858740481       12.0769555616       24.3282115039
  C         1.7584263065       13.9427566011       23.2258160583
  C         1.0435512715       10.3874722609       23.1741641616
  C         1.6153340398       11.0749776302       21.0655286800
  C         0.6061822445       10.7028324468       24.5018796147
  C         0.1257861598       12.7264837583       25.5247721928
  H         1.8880913278       14.4638759850       22.3241157193
  H         1.2983538171       14.6520426150       23.9188903647
  C         3.1497614893       13.5272456221       23.7436813436
  S         1.5425433498        8.8532985888       22.4728859688
  C         1.8687247074        9.7126314808       21.0202347771
  H         1.6031148197       11.7388891169       20.2135342686
  C         0.3294380900       10.0900610902       25.6686479313
  H         0.1146309531       13.7877145954       25.5217646182
  C        -0.1438981411       12.1059606001       26.6885380046
  H         3.5044170433       12.8910869724       22.9487703013
  H         3.0062745125       12.9160990433       24.6134585025
  C         4.0179831767       14.7656423015       24.0098075434
  C         2.5113946706        9.0634697700       19.8332808863
  C        -0.1360857204       10.7458382039       26.8134223808
  H         0.1965293950        8.9975085617       25.7793115566
  C        -0.5500546012       12.5143677059       27.9451084570
  H         4.5407048440       14.5777081704       24.9640660049
  H         3.3563370667       15.6241676954       24.3057427849
  C         4.9435306449       15.1195955087       22.8594436218
  C         2.4171860626        7.6788013694       19.5191208918
  C         2.9716959476        9.9976498032       18.7259337921
  C        -0.5632662303       10.1133098381       27.9971319859
  C        -0.8004788974       11.4102357565       28.7246967697
  S        -0.8511586919       14.0128058065       28.7666242282
  H         5.3995262521       16.0632326348       23.2221896527
  H         4.4563353967       15.3873870179       21.9015039530
  C         6.1808124949       14.1606930880       22.7549554874
  N         2.0394717187        6.6586969382       20.3446999376
  C         2.8396072932        7.1910339766       18.2798550942
  C         3.3509337247        9.4686004431       17.5006585631
  H         3.0421243563       11.0624043487       18.8203517004
  C         0.5785375936        9.4087036390       28.6833603369
  C        -1.8433115836        9.1699528431       27.8116007095
  C        -1.2900420798       11.8267235448       29.9606411508
  C        -1.2418058976       13.2115372361       30.1170934629
  H         7.1332052738       14.7680006048       22.7017278218
  H         6.3420780585       13.6386204045       23.6686028909
  C         6.1534955617       13.1503708630       21.5381131306
  S         1.9680613876        5.2396098965       19.4852117623
  N         2.6140544785        5.8264397688       18.0780365233
  C         3.3630730358        7.9853850447       17.1948589262
  H         3.9224938163       10.0570620656       16.8203476358
  H         0.7102654123        8.4875504089       28.1369816446
  H         0.3124554276        8.9823662264       29.6217212468
  C         1.8911353442       10.0764452381       28.8583154590
  H        -1.6425999276        8.4642569177       27.0852930034
  H        -2.0072643796        8.7098021995       28.7636434916
  C        -2.9562418621        9.9703604395       27.2892079712
  H        -1.5628942331       11.0430555054       30.6889742912
  C        -1.6463510480       13.9445872462       31.3718028537
  H         5.1234565348       12.6677616344       21.4230591765
  H         6.8506511034       12.3475135456       21.7338063075
  C         6.4344714925       13.8234107746       20.2672212079
  C         3.6980950172        7.3558814777       15.9493695039
  H         2.2917685569       10.0436766721       27.8588312357
  H         1.7594998503       11.0645916005       29.1428033792
  C         2.9652589317        9.3641700759       29.7346997069
  H        -2.8645906542       10.4955668249       26.3430721496
  H        -3.0317844395       10.7766325264       27.9517690456
  C        -4.3338076594        9.2670550776       27.3062114707
  C        -1.7447989475       15.3428664939       31.4663654661
  C        -1.6493388578       13.2338432281       32.6623611333
  H         5.8894524769       13.3997807174       19.3700595630
  H         6.0142191419       14.8186760530       20.3523834650
  C         7.9262980538       13.8946700194       19.8674614302
  H         3.5654614830        6.2696092378       15.8719369947
  C         4.0054697685        7.9623654219       14.7708003405
  H         3.1612419539        8.4756948520       29.2927381734
  H         2.4936465604        9.0580946275       30.7327511185
  C         4.2234272324       10.2581861850       29.8231724881
  H        -4.1715772678        8.3166602101       26.8164483695
  H        -4.7434474954        8.8901751666       28.1919606537
  C        -5.2663250546       10.1932059255       26.4576634565
  N        -1.4800732758       16.3004533051       30.5264093696
  C        -2.1124629382       15.9924619771       32.6715496060
  C        -1.9952354940       13.9040084219       33.8608194184
  H        -1.3223226686       12.1906871153       32.6216435326
  H         8.5032754749       14.5344825569       20.5668471198
  H         8.3539274176       12.9287430093       19.6485251261
  H         8.0475897537       14.4387539591       18.9544450327
  S         4.2045258384        9.5841708512       14.4239336729
  C         4.1590967844        7.0779145682       13.6380707075
  H         4.1690644666       11.0535169154       29.1073587133
  H         4.2394063867       10.7685995784       30.8100912824
  C         5.4170774736        9.3563417420       29.5121609160
  H        -4.7118940141       10.4752303263       25.5713165515
  H        -5.5607622829       11.0597749277       27.0389784254
  C        -6.5298771526        9.3712097108       26.0212257209
  S        -1.4483261339       17.7640206452       31.1110146830
  N        -2.0478868798       17.3328094247       32.5414113737
  C        -2.3489182603       15.3710831309       33.8814175505
  H        -1.9613395070       13.3209787820       34.7380318212
  C         4.5126007806        9.1123536234       12.7959256680
  N         4.4700069991        7.7888021793       12.6050015826
  O         3.9332143842        5.8598813703       13.6944557851
  H         6.2273079762       10.0487257227       29.3081873064
  H         5.0691310108        8.7769812045       28.7161739581
  C         5.8382797031        8.3478220192       30.6488830143
  H        -6.4328758552        8.5927569593       25.2830887505
  H        -7.0197285444        8.9162955491       26.8674934060
  C        -7.5236992356       10.3285778117       25.4480453654
  C        -2.5451658892       16.1880721753       35.0526727424
  S         4.9758664750        9.9701215835       11.3945737501
  C         4.6187245750        7.0879932023       11.3253232180
  H         6.9118330975        8.0787208768       30.4624980207
  H         5.8363469814        8.9464149678       31.5612088866
  C         5.0938212352        7.0188120806       30.8159381599
  H        -7.0032519522       10.9526229035       24.6824656748
  H        -7.8138073411       11.0340738088       26.2911483458
  C        -8.8787048955        9.6931124245       25.0040774488
  H        -2.3702421868       17.2849229664       34.9627829548
  C        -3.1253359114       15.8957698831       36.2874607022
  H         5.1122713928        7.6857939741       10.5740811173
  H         5.2975515142        6.2884149230       11.3388635963
  C         3.3157166988        6.6388050627       10.7250518589
  H         4.5962317429        6.8034986388       29.8579897704
  H         4.3418167939        7.2061211300       31.6087369762
  C         5.8425862280        5.7826355017       31.2913471696
  H        -9.2299518170        9.8349620381       24.0247406885
  H        -8.8132203951        8.6102390366       24.9522377827
  C        -9.9095511684        9.9957605506       26.0816193572
  S        -3.8019294831       14.4025788362       36.8505111051
  C        -3.2201295940       17.0185917960       37.2781390256
  H         2.4299150174        6.5653610808       11.3390087977
  H         3.0581664167        7.2895152467        9.8710470442
  H         3.4353959733        5.6606528021       10.3003185332
  H         6.4915453279        5.2765550382       30.5729842857
  H         5.0581610574        5.1280927534       31.5980910513
  H         6.3910776600        6.0933781641       32.1802086944
  H       -10.9323663133        9.7061112666       25.7803732820
  H        -9.9200482786       11.0485211248       26.4477468312
  H        -9.7670461662        9.4133131461       26.9883080367
  C        -4.0268204926       15.2062254351       38.3759101175
  N        -3.7442052482       16.5143100248       38.4053572420
  O        -2.9586350027       18.2061823702       37.0358345398
  S        -4.9320379921       14.5446298681       39.7653269201
  C        -3.9937045640       17.3362436899       39.6004080745
  H        -3.8371674956       18.3298785778       39.2764627439
  H        -4.9858509725       17.3738746607       39.9308302856
  C        -3.0469742815       17.0233433363       40.7213422383
  H        -3.6372311140       16.7659102916       41.5845521288
  H        -2.3118155565       16.2506196508       40.6022507436
  H        -2.3973261765       17.8688798698       40.9743686206
