352
i=
  H         3.0182790912        2.9073341375       13.3692460099
  C         3.4375538438        2.0934646089       12.8537995347
  H         3.1261368137        1.1699642411       13.3108406232
  C         2.8673788245        2.0777019228       11.4463376290
  C         4.9729589058        1.9982574237       13.0005945427
  C         3.7767475774        2.2914322745       10.2975494852
  H         2.1525955317        2.8536223286       11.4312721972
  H         2.2432485944        1.2354185326       11.3027599135
  H         5.3718731730        1.1819382932       12.4642271045
  H         5.1105310234        1.8712951371       14.1199531249
  H         5.4413076548        2.9384448741       12.6897037370
  C         4.3983928460        0.9582828226        9.7761658288
  H         3.2487663457        2.7827393495        9.5820079836
  H         4.5823688545        2.9536402290       10.5604944572
  C         5.0998679298        1.1202039508        8.4416902340
  H         3.4465448683        0.3747520677        9.6722914524
  H         5.0595876426        0.4483046654       10.5102351994
  C         6.3859213714        1.9872064314        8.5988362765
  H         4.4517479397        1.6990268502        7.8313974949
  H         5.3909644276        0.2365909088        7.9498327348
  C         7.6436071111        1.3428703128        9.2640656585
  H         6.7182380577        2.1718581221        7.5494273528
  H         6.2014122779        2.9549365086        9.1142371752
  C         8.9183100872        2.3132923556        9.4233688994
  H         8.0226660875        0.5072223627        8.6820833112
  H         7.4495788807        0.8156012652       10.1975980760
  C         8.5650457377        3.6478190699       10.0901486202
  C         9.3011222834        2.9648665502        8.1574088942
  C        10.0886976015        1.5436746180       10.0990928422
  C         8.7684737500        4.7296821998        9.2850881557
  C         8.1094703303        3.9884372339       11.3586848601
  C         9.3129756864        4.3243961953        8.0448634000
  C         9.8287291799        2.2883355393        7.0485439634
  H         9.6712634272        1.1341397096       10.9944856040
  H        10.2716632622        0.6599349363        9.4495403824
  C        11.3577476991        2.3463075081       10.2580254857
  S         8.4215229077        6.2416180693       10.0465571223
  C         7.9805053722        5.3346621216       11.4740095201
  H         7.9632838782        3.1877272956       12.1150000599
  C         9.7237020472        4.9644450293        6.9312838670
  H         9.8787589480        1.2603542392        7.0544229915
  C        10.2168973097        2.9627253720        5.9281708847
  H        11.3483433005        3.3640226715       10.4341952137
  H        12.0446345984        2.2620967807        9.4230264352
  C        12.1241998899        1.8537369156       11.4796335544
  C         7.6507998737        6.1026768890       12.7237699538
  C        10.1593449622        4.3281913024        5.7816362639
  H         9.6701166862        6.0763341609        6.9824040736
  C        10.7136254266        2.5060586531        4.6984082833
  H        13.0014763112        2.4367045851       11.4630204253
  H        12.3604608820        0.7507021270       11.3429724732
  C        11.2578175005        2.1614318857       12.7534690903
  C         7.6882176046        7.5056573563       12.9462841708
  C         7.2446465239        5.2774838904       13.9490182373
  C        10.6626353026        4.9729480768        4.5400510868
  C        10.9154273943        3.6115505009        3.8358183409
  S        11.1361995834        1.0018459289        3.9801467464
  H        10.6060498063        2.9750366595       12.4150648944
  H        10.7470502669        1.2961465932       13.1481493578
  C        12.0572777783        2.5852763270       14.0069420427
  N         8.0198239015        8.5074961192       12.0136334532
  C         7.4752033497        8.0306463406       14.2230747047
  C         6.9932744470        5.8290747316       15.1900504013
  H         7.0707571526        4.1852337958       13.8155946127
  C        11.9281458158        5.8623596801        4.7830130009
  C         9.4707290568        5.6155060064        3.7389606676
  C        11.3936570525        3.1777959802        2.5640493859
  C        11.4961384523        1.8036145687        2.4877234493
  H        11.7736594798        3.5137978383       14.3701699880
  H        13.0674596061        2.7019785057       13.6100820986
  C        12.0357754204        1.5850751777       15.1782262383
  S         7.9749560283        9.9270738089       12.7943603229
  N         7.5918666415        9.3804543509       14.2332334285
  C         7.1606583743        7.2807531286       15.4182894338
  H         6.4277416885        5.2062124658       15.9438780633
  H        11.6291924059        6.7434384248        5.2291903484
  H        12.1409753557        6.1150204250        3.7894313516
  C        12.9837782404        5.0491824612        5.5140944123
  H         8.9616907607        6.4775517961        4.1843417382
  H         9.9902814845        6.2050989162        3.0309010182
  C         8.4880305973        4.6675254886        3.0279820138
  H        11.5094630848        3.8624639276        1.7793473836
  C        11.8145059121        1.0283653880        1.2586966821
  H        11.1565627781        1.6757862281       15.8103263037
  H        12.0913630049        0.6024061885       14.7923325787
  C        13.1541706005        1.7507096237       16.2007136766
  C         6.9323261258        8.0464189524       16.5980832471
  H        12.5991649202        4.7683925672        6.4868983119
  H        13.2685554449        4.1935082251        5.0249550138
  C        14.3351166472        5.7806310007        5.6443396025
  H         8.0643614764        3.9544484088        3.6657695829
  H         8.8820709790        4.0935355002        2.1623048389
  C         7.2991790666        5.5247339138        2.6037104239
  C        11.8397103822       -0.3736663121        1.0648155280
  C        12.0526115674        1.7773049206       -0.0238756831
  H        13.9211755407        2.4213789002       15.7757828095
  H        13.7443905822        0.8961624512       16.3743845522
  C        12.6807670476        2.4915128735       17.5458592192
  H         7.1511647081        9.0835917448       16.5281582368
  C         6.5556066152        7.6487537167       17.9235457227
  H        14.2895956929        6.5148595858        6.5602048899
  H        14.4903870993        6.5107718388        4.8162226530
  C        15.5156909505        4.7512503313        5.7970618312
  H         6.9425428914        6.1339060045        3.4050448756
  H         7.6976901137        6.2070484266        1.9104169289
  C         6.1332692972        4.6574366200        2.0956128507
  N        11.6627364654       -1.2879486688        2.1268156236
  C        12.0521854919       -0.9956456373       -0.0989020840
  C        12.1552937633        1.1772232902       -1.2525867842
  H        11.8308855326        2.8769043047        0.0046956271
  H        12.4629850957        3.5661220542       17.3622852835
  H        13.4007088410        2.5578434526       18.2969558279
  H        11.7460648662        1.9324133048       17.8161154870
  S         6.2451353539        6.0946207870       18.4585320819
  C         6.5093552162        8.7684602167       18.8894765024
  H        15.3919978438        4.0853675347        6.6125195216
  H        15.5567970190        4.1626041473        4.8795486516
  C        16.8601478472        5.3825403101        5.8249951326
  H         5.6510626225        4.2600772251        2.9769125705
  H         6.4268316805        3.7630424673        1.5261277969
  C         5.0762890239        5.3634882439        1.3475367937
  S        11.7028180101       -2.7853058931        1.5163068294
  N        12.1507888283       -2.3652917846       -0.0095506485
  C        12.4249883904       -0.2631585737       -1.2884887453
  H        12.2513330212        1.8642639582       -2.1447923847
  C         6.0308599732        6.8486332464       20.0407884928
  N         6.1974839887        8.1965497892       20.0828949669
  O         6.5518934278        9.9568662103       18.6032834378
  H        17.4782611220        4.8507292916        5.1292895976
  H        16.8246676777        6.3767451100        5.3905545953
  C        17.6595016498        5.2313568580        7.1354736465
  H         5.5853828549        6.0858341207        0.7012448847
  H         4.5137679667        4.5826368573        0.7847279901
  C         4.1686001343        6.1353992360        2.2887430654
  C        12.7345742136       -0.9854777016       -2.4918255319
  S         5.7507231431        5.8845901514       21.4771696121
  C         6.0930142545        9.0295996832       21.2756107952
  H        17.0036369147        5.6927925572        7.9226397492
  H        17.8415887323        4.2015847139        7.2861439762
  C        18.9436855743        6.0450762231        7.0990059408
  H         4.5391067991        6.0964991385        3.3541825218
  H         3.2978333468        5.5624936588        2.1259064706
  C         4.0331288287        7.5869015507        1.9125307514
  H        12.5379709761       -2.0600050136       -2.4479521823
  C        13.2323307643       -0.5674615709       -3.6492814687
  H         5.2356515188        8.7383232754       21.8450940168
  H         5.9122487168       10.0426443422       20.9883188369
  C         7.3762768971        8.9096227998       22.1050696260
  H        19.5292531393        5.8200375613        8.0037382982
  H        18.5930124908        6.9796209607        6.9910738490
  C        19.7757442762        5.5128194944        5.8997613894
  H         4.9972042630        7.9760650599        1.6169956858
  H         3.5149045380        7.8026932550        1.0436220283
  C         3.5548497692        8.4646475849        2.9900557609
  S        13.7161524181        1.0175086616       -4.0911535286
  C        13.3950247897       -1.5926554550       -4.7082942564
  H         7.3031881762        8.0100934502       22.7111984548
  H         7.5819709763        9.7748361702       22.7806652565
  H         8.1280252547        8.8510671547       21.3010015898
  H        19.5279296351        4.5140846565        5.4795240244
  H        19.8229375311        6.2707752291        5.1374614855
  H        20.8554697511        5.3998990156        6.0984818298
  H         3.3638317782        9.4450142813        2.5769386998
  H         2.6484915006        8.1053449738        3.4997733149
  H         4.2537824298        8.4347634760        3.7940563802
  C        14.1671297030        0.3046701450       -5.6807866070
  N        13.9923563784       -1.0436438888       -5.7206306739
  O        13.1505003731       -2.7910198439       -4.5603185352
  S        14.7440403663        1.1251043857       -7.1317132369
  C        14.1674759035       -1.8078050487       -6.9433121989
  H        14.2145694156       -2.8815847297       -6.9061226866
  H        15.1483431783       -1.6110172264       -7.3802732784
  C        12.9393019972       -1.6645468689       -7.8414794886
  H        12.0570926429       -2.2270896769       -7.6973379786
  H        13.2294584307       -1.8617203772       -8.8392478619
  H        12.6472315353       -0.6576725532       -7.8327147986
  H        -2.7330980871       14.5142629655       15.6845688537
  C        -3.2640651240       13.9025153826       16.3920197440
  H        -4.2118818130       14.3837818196       16.7056369838
  C        -2.2302612909       13.8091277225       17.4815630238
  C        -3.6221208639       12.6143078650       15.6606531474
  C        -2.8593988000       13.3461944254       18.7418643900
  H        -1.6031176514       13.0717438276       17.1440568695
  H        -1.6442462339       14.7100090755       17.5702876080
  H        -4.3492355605       12.1507309903       16.2919396851
  H        -3.9548391663       12.8360500527       14.6264033398
  H        -2.7680133711       11.9408773586       15.5969405292
  C        -1.8054822584       12.9101993807       19.7529622068
  H        -3.5209689289       12.5136763163       18.5237249679
  H        -3.4241952805       14.1509708595       19.2231719759
  C        -2.2566152297       12.9341753830       21.2326990270
  H        -1.5086167040       11.9247843579       19.4072956209
  H        -0.9439286212       13.5268469633       19.6168033405
  C        -1.2024931968       12.2885758660       22.0985566257
  H        -3.2437711262       12.6025310529       21.3598010248
  H        -2.2212183289       13.9928020463       21.6099712409
  C        -0.1358494955       13.2755788770       22.5892154827
  H        -1.7898346320       12.0468398262       23.0476038257
  H        -0.8437461235       11.3381755924       21.7479828388
  C         1.0376879631       12.6777018650       23.3377430929
  H         0.2718301407       13.8847005754       21.7995038320
  H        -0.6742614222       13.9807686040       23.2291257255
  C         1.3892069878       11.3400686701       22.6286729957
  C         0.7923312688       11.9826283287       24.6355629838
  C         2.1546999522       13.7301784713       23.4747001196
  C         1.1965590336       10.2421807782       23.4675726836
  C         1.8747994839       10.9563891612       21.3451009595
  C         0.7399741662       10.6006163754       24.7280230452
  C         0.3706226850       12.5444606571       25.8682716139
  H         2.3616416851       14.1789977147       22.4823171276
  H         1.8005636563       14.6134578843       24.0728579001
  C         3.5191242192       13.1569465420       23.9534881080
  S         1.5830294645        8.7808241240       22.6205870483
  C         2.1194095833        9.6334772966       21.2307988102
  H         1.9993781059       11.6519150244       20.5368685647
  C         0.3391564064        9.9519175570       25.8246048971
  H         0.1611556522       13.6183060884       25.7508121879
  C        -0.0594987056       11.8800828832       26.9823371746
  H         3.7988934309       12.4417292928       23.2547432894
  H         3.4392744903       12.7330707705       24.8937923594
  C         4.6771915052       14.1975698439       24.0985688930
  C         2.6930940130        8.9606725899       20.0557154942
  C        -0.1148266385       10.5249284522       27.0028361277
  H         0.4923914295        8.8681468757       25.7684230290
  C        -0.5421654511       12.2267003228       28.2297502468
  H         5.4963828702       13.8020103925       24.6730641310
  H         4.4211251821       15.0586247897       24.7551509365
  C         5.3187775623       14.5768295410       22.7894051680
  C         2.6639086078        7.5638940839       19.8007640037
  C         3.2202822626        9.7415468958       18.9411215314
  C        -0.4522990216        9.8000977363       28.2324142394
  C        -0.7849249928       11.0918395879       28.9539965210
  S        -0.8571839921       13.7185804723       29.0661352981
  H         5.5876645941       15.6172609837       22.9135477695
  H         4.6041428207       14.6445734331       21.9918850491
  C         6.4738621819       13.7734610847       22.2292143972
  N         2.3082515710        6.5456167062       20.6431029759
  C         3.0681424912        7.0295029122       18.5428004151
  C         3.5185077562        9.2471580456       17.6652076650
  H         3.3135740660       10.8041534887       19.0573029990
  C         0.7700326572        9.0137862180       28.8460640952
  C        -1.7579625161        8.9363148747       28.1402263536
  C        -1.3773620447       11.4687161657       30.2218709651
  C        -1.4598686131       12.8796076474       30.4486880296
  H         7.4003417847       14.3254393957       22.1013818059
  H         6.5518825924       12.8037854334       22.7135699747
  C         6.2652193216       13.3488891157       20.8126781412
  S         2.5255586447        5.1018484462       19.9231408938
  N         2.9639435461        5.6664750281       18.4697429278
  C         3.3774496048        7.8274277140       17.4223787988
  H         3.8884202541        9.8722978833       16.8591027438
  H         1.1220255271        8.4032283822       28.0288985259
  H         0.3477081674        8.2972298641       29.5602663897
  C         1.8385319899        9.9469744724       29.5093097719
  H        -1.6073672422        8.1529134214       27.4281278879
  H        -1.8336447104        8.4877778684       29.0776791384
  C        -3.0981058823        9.6654693821       27.7207362973
  H        -1.5316240891       10.6491463287       30.9228963098
  C        -1.7489241918       13.5627660288       31.7184957899
  H         6.1048947164       14.2810386459       20.1984439197
  H         5.4502440740       12.6260104844       20.6706966204
  C         7.5442376337       12.8289567550       20.1619255704
  C         3.5320406424        7.2289821685       16.1913846591
  H         2.1157650306       10.6189779477       28.7579929924
  H         1.3919948933       10.5579098228       30.3084110949
  C         3.1015540053        9.2786929499       30.1254387496
  H        -2.8132496489       10.3715703167       26.9197790296
  H        -3.4177080121       10.2673647017       28.5217506931
  C        -4.2182457574        8.6932533282       27.3765072015
  C        -1.4903451608       14.9291127270       31.9480253639
  C        -2.2638245546       12.7715131841       32.8694893743
  H         8.4662853522       13.3446606868       20.6717532490
  H         7.6428733590       11.7920158818       20.4024318189
  C         7.5062180994       12.9685654003       18.6380408724
  H         3.0379548827        6.2355887950       16.1564473594
  C         3.8964403730        7.5990888505       14.9403477842
  H         3.5552069804        8.5657749092       29.3841645103
  H         2.8036324025        8.6551015003       30.9706574574
  C         4.2609976060       10.2715917222       30.5055767237
  H        -3.9950060315        8.2292227059       26.4244350451
  H        -4.2626479710        7.8493987687       28.0528698003
  C        -5.6238642320        9.2571969970       27.2659500508
  N        -1.2130725346       15.9163742386       30.9959137143
  C        -1.8115340486       15.5280240071       33.1816653933
  C        -2.3139289158       13.3310271566       34.1107607412
  H        -2.3349672594       11.6374857967       32.7963051307
  H         7.4935037046       14.0080104531       18.3637209896
  H         8.2270736876       12.4051824961       18.1176832120
  H         6.5790275940       12.5088728788       18.2174031786
  S         4.2326087669        9.1498413937       14.3161885137
  C         3.8711401368        6.4826853601       13.9478683885
  H         4.1681698599       11.1939026859       29.8710135628
  H         4.1099067475       10.5951116542       31.5668609944
  C         5.7456874726        9.7784334393       30.4710618045
  H        -5.8114364449       10.0685558435       27.9609440576
  H        -6.3049998566        8.4094348096       27.4403330372
  C        -5.8600707798        9.8647930474       25.8800715271
  S        -1.2811957614       17.3982718937       31.7152973677
  N        -1.7656545519       16.8618495225       33.1623651579
  C        -2.2567473694       14.8327717317       34.3430766050
  H        -2.4132264287       12.6659476720       34.9331934388
  C         4.3034432697        8.3641301080       12.7383262971
  N         4.1298980487        6.9955507291       12.7578722592
  O         3.6528416622        5.3193077102       14.1438234373
  H         6.2935390404       10.5680838593       30.9450559804
  H         6.2231721865        9.8194074759       29.4816737840
  C         6.0070574156        8.5195804215       31.2979441959
  H        -5.2570400596       10.7434264011       25.8343098016
  H        -5.4687674282        9.0909106457       25.1920830182
  C        -7.3009996504       10.1867723391       25.8969157682
  C        -2.4871019702       15.5877338516       35.5214476265
  S         4.6423431493        9.2568576262       11.3167796328
  C         4.1773091535        6.1797392126       11.6170237113
  H         6.5660477716        8.7223818978       32.2380027239
  H         5.0009565982        8.2195856916       31.7396617023
  C         6.5807329857        7.3944442109       30.4625331471
  H        -7.4736244971       10.8085308799       25.0209027947
  H        -7.5605997265       10.7253696381       26.7739409493
  C        -8.0821043932        8.9112914457       25.6777332545
  H        -2.1579405562       16.6303894447       35.4987628066
  C        -3.0780808842       15.1852432466       36.7006095919
  H         5.0578276716        6.5523919114       11.0601075672
  H         4.3399663760        5.0885089072       11.8717926556
  C         2.8982366187        6.2662172749       10.7464768143
  H         7.6137408041        7.6171795751       30.2389937026
  H         6.0414986156        7.2353702504       29.5171477197
  C         6.7141196622        6.1554765987       31.3582115834
  H        -7.5675456894        8.2923642481       24.9664469770
  H        -8.3266641255        8.4410059946       26.5943299533
  C        -9.4469760588        9.1335377532       25.0301326854
  S        -3.7695627785       13.7007131517       37.1227524944
  C        -3.1183643223       16.1987173790       37.7654287922
  H         3.0180204548        7.1479819098       10.1415691295
  H         2.8130192896        5.3910735584       10.1544373616
  H         1.9332866047        6.3904642443       11.2556666418
  H         6.6951624432        6.3438490715       32.4320450940
  H         7.6548657658        5.6912418853       31.1439611012
  H         5.9466898891        5.4990085975       30.9887478814
  H        -9.6758222338       10.1710116920       24.6694153142
  H       -10.1790277402        8.7890008407       25.6969572982
  H        -9.3995792228        8.5892410304       24.1114664438
  C        -4.1510663671       14.3641477628       38.7233306894
  N        -3.8058975860       15.6896049385       38.8152388713
  O        -2.7963793994       17.3321924372       37.6583357745
  S        -5.0046430489       13.5271869347       40.0426939075
  C        -4.0650802892       16.5700353061       39.9528753532
  H        -4.2824553717       17.5590736309       39.6072374955
  H        -4.7284928600       16.1991267181       40.7193610927
  C        -2.8083099177       16.7305014924       40.7391755904
  H        -2.2727262199       17.5929774266       40.4356530239
  H        -2.9426655080       16.8189135043       41.8549792155
  H        -2.2611306658       15.8391766952       40.5401161641
