352
i=
  H         1.7733241741        1.2414530326       12.6848003787
  C         2.6978789620        1.7390749124       12.4548600925
  H         3.3935727099        0.9610936668       12.2834825660
  C         2.4002611372        2.3929004081       11.1520825825
  C         2.9718038692        2.6081393106       13.7540473152
  C         3.7117457209        2.5642686824       10.2900256126
  H         1.7794619258        3.3666666111       11.3844499732
  H         1.7541934671        1.6846933783       10.6526849777
  H         2.9851687155        1.9354411908       14.6336659571
  H         2.1003601908        3.2092272760       13.9532791825
  H         3.8804873633        3.2108486150       13.7213105455
  C         4.3392710730        1.2964344637        9.6518460126
  H         3.6074173575        3.3347855097        9.5127158439
  H         4.4841329837        3.0287223294       10.8689787415
  C         5.2831841150        1.5145570774        8.4460564544
  H         3.4487307200        0.6457716919        9.3492162495
  H         4.9173079923        0.7432025372       10.3701352927
  C         6.4386195730        2.5469350264        8.6216208370
  H         4.6971383518        1.7609917849        7.5751159502
  H         5.7403640674        0.5268984250        8.3877236918
  C         7.7225221394        1.9494433010        9.1970666689
  H         6.5812498870        3.0941890175        7.6649493548
  H         6.1162439500        3.3480737347        9.2586275318
  C         8.9684313623        2.8756581145        9.2985893115
  H         7.8985037543        1.0800277250        8.6123339825
  H         7.4571426060        1.8011713371       10.2301204997
  C         8.5516755053        4.2142030464        9.9480106533
  C         9.3893560483        3.5402659160        8.0327842771
  C        10.1861294478        2.1766596481       10.1308613842
  C         8.8338635584        5.3229748044        9.1856119995
  C         8.1145092225        4.5674402909       11.2451182950
  C         9.2822658282        4.9049911648        7.9102548084
  C         9.9477484284        2.9211049960        6.8974728463
  H         9.5736935386        1.6427503440       10.9378633382
  H        10.5937193422        1.4814361856        9.4677523827
  C        11.2459278022        3.0163025429       10.8046752457
  S         8.6474930113        6.8692920035       10.0928241551
  C         8.1383229668        5.9179559264       11.4832306335
  H         7.7829022650        3.7724761387       11.8719114836
  C         9.7586230232        5.5389241765        6.7685272801
  H        10.2237337640        1.8328282266        6.9837882067
  C        10.2155228496        3.5562488250        5.6991222328
  H        10.9205916467        3.8309334276       11.4611759550
  H        11.7260949179        3.6802198534        9.9605568686
  C        12.3677638409        2.1949542786       11.4659463471
  C         7.7840595310        6.5753393480       12.7489823320
  C        10.1933158565        4.8976522453        5.6018929437
  H         9.8216420944        6.5804856243        6.8301956434
  C        10.7799492637        3.1832785962        4.4444090180
  H        13.2324502507        2.8637218276       11.5364820674
  H        12.6037821049        1.3887338683       10.8127308954
  C        12.0342287326        1.6953429280       12.8565290982
  C         7.7748329372        7.9286408094       13.0586198636
  C         7.3982852879        5.7485352314       13.8836186960
  C        10.7478886660        5.6160857509        4.3400796343
  C        10.9691962386        4.2848581974        3.6051407342
  S        11.1639606847        1.6772742896        3.7192964851
  H        11.1150737574        1.1440050723       12.7774239918
  H        12.7270309355        1.0297458611       13.2578116048
  C        11.7988634222        2.8361164546       13.9768548997
  N         8.0634509118        8.9446852358       12.1822069606
  C         7.5456051686        8.4389251575       14.3283961287
  C         7.1488413331        6.1752799779       15.1364043479
  H         7.5608152278        4.6485698173       13.8495038840
  C        12.1222508384        6.2890229275        4.6322177312
  C         9.7306939043        6.5675793634        3.5356244050
  C        11.3807941808        3.8814096569        2.3166162825
  C        11.4817105153        2.5018589700        2.2191880111
  H        10.9675959205        3.4392456324       13.6023798112
  H        12.7322597973        3.5003142889       14.0313539134
  C        11.5006475774        2.0910590527       15.3356663592
  S         8.2255653460       10.3513832857       12.9306324594
  N         7.7123412084        9.8349397023       14.4153412258
  C         7.2334547535        7.6068026223       15.4163310627
  H         6.8098470699        5.5054265803       15.8803871269
  H        11.9887577667        7.1918883580        5.1794741062
  H        12.5455719939        6.6554419437        3.7016491412
  C        13.1006603831        5.4907318249        5.3979485338
  H         9.4782818106        7.4436705063        4.1829332752
  H        10.2527541646        6.9978008614        2.6851578039
  C         8.3131745361        5.9505921160        3.1627579961
  H        11.6055546120        4.5893720277        1.5384991975
  C        11.9205578299        1.7696333035        0.9753600475
  H        10.5598920406        2.5604369494       15.6476356635
  H        11.1199090200        1.0859759365       15.1940835431
  C        12.7496273633        2.0874591410       16.2906976453
  C         6.9083654499        8.2123473031       16.6437381881
  H        12.8317449312        5.2518193375        6.3918567228
  H        13.3023841072        4.5425305602        4.9385216510
  C        14.3908584650        6.2694146549        5.4568434877
  H         7.5877998805        6.6082932786        3.6140418030
  H         8.1463918260        5.0107714528        3.6669371013
  C         8.0804070392        5.7601057888        1.6587050632
  C        12.0037433881        0.3650504729        0.7803080587
  C        12.1910290870        2.5269250620       -0.2309247124
  H        13.3932800806        2.9378862409       16.2620118153
  H        13.4463325797        1.2080932425       16.1316834048
  C        12.4326768817        2.1586721289       17.7598988805
  H         7.0244245039        9.3056590322       16.5602019133
  C         6.4782489905        7.7928543273       17.8992661246
  H        14.2963213786        7.3217828615        5.6062148990
  H        14.9287849568        6.1293397672        4.5035678957
  C        15.3435061532        5.7696175641        6.5306195039
  H         8.3460645916        6.6279556568        1.0771910140
  H         8.8282093133        5.0641167081        1.3298699152
  C         6.7539559661        5.2586082459        1.2340052054
  N        11.5838210555       -0.5707622924        1.7288118710
  C        12.2524721035       -0.2611685276       -0.4664066083
  C        12.4621757573        1.9462321559       -1.4660446600
  H        12.3747771318        3.5852724882       -0.0595049503
  H        12.1839526710        3.2257296765       18.0832442042
  H        13.3256564902        1.7272393836       18.3249537935
  H        11.5762143334        1.5580715817       17.9778944335
  S         6.0086829252        6.2134757087       18.3731884257
  C         6.3315142673        8.8731876055       18.9265026230
  H        15.3738320347        6.4297642807        7.4604309585
  H        15.0794773725        4.7768629987        6.7472538187
  C        16.7484045915        5.6008191515        5.9885640779
  H         6.6453215991        4.2103249344        1.4422583441
  H         6.8487191979        5.2919272985        0.1939091890
  C         5.6277525438        6.0863415261        1.6767009575
  S        11.5383935285       -2.0555660647        1.0865502992
  N        12.0509636648       -1.5868378353       -0.4101877292
  C        12.5358855647        0.4810698248       -1.6344785667
  H        12.7723947729        2.6163529237       -2.2648742835
  C         5.9231607657        6.9005919402       19.9990520798
  N         5.8908516133        8.2603994426       20.0779627082
  O         6.4000690270       10.1221810690       18.7101992160
  H        16.6735634232        4.7521023239        5.2775868271
  H        17.1881658816        6.3716885786        5.2795357622
  C        17.7733452443        5.1346672066        7.0309444847
  H         4.7163214584        5.8469814423        1.1171062248
  H         5.4525047814        5.8107728679        2.6956686184
  C         5.7831151687        7.6105980526        1.4018056598
  C        13.0068105636       -0.1801532511       -2.7883341309
  S         5.5056962434        5.9479338746       21.4004567449
  C         6.0172451947        9.0267065498       21.3437167484
  H        17.3950348948        4.4711524804        7.7835683694
  H        18.4098931218        4.5084888611        6.4699457826
  C        18.6580405667        6.3629602872        7.6036775171
  H         6.0470716008        7.7930617410        0.3804735654
  H         6.5681406101        7.8397250761        2.0124346763
  C         4.4271903634        8.2478394058        1.6683047024
  H        12.8243172225       -1.1934165429       -2.7893032981
  C        13.2859651914        0.2583447142       -4.0489855540
  H         5.2889643650        8.6435209656       22.1045724983
  H         5.6472356452       10.0906692122       21.2119617484
  C         7.4262258265        9.0387846325       21.7278933709
  H        18.6871981786        6.3738972550        8.6976494695
  H        18.1499752048        7.3040730621        7.2263115432
  C        20.1270458287        6.2473461063        7.1274385358
  H         3.9406950762        8.4080987085        0.6885900093
  H         3.7152214017        7.5814033719        2.0948274570
  C         4.4256482629        9.5055227716        2.4978451410
  S        13.6498613104        1.8956574372       -4.4561073956
  C        13.5540262215       -0.7977226299       -5.0452973403
  H         7.5985796279        9.9631155551       22.3598760580
  H         8.2475447777        9.0278593177       21.0334019495
  H         7.7668709874        8.3278806491       22.4930997811
  H        20.7667047549        6.6337653174        7.9497242571
  H        20.4888614246        5.2499486336        6.7556472094
  H        20.3215067228        6.8253918748        6.1477975634
  H         4.6648730566       10.3836736439        1.8156472739
  H         3.5695165305        9.7453627492        3.0396096297
  H         5.2403260448        9.4480588526        3.2482113136
  C        13.9792684313        1.2250634465       -6.0011055823
  N        14.0147280920       -0.1354509757       -6.0841667124
  O        13.4372761049       -1.9880360239       -4.9125324606
  S        14.6859334092        2.1289879600       -7.3281129822
  C        14.3827668606       -0.8881334806       -7.2512799492
  H        14.8718682052       -1.9369013703       -7.0639566198
  H        15.2283879230       -0.3915016095       -7.8261213129
  C        13.1898081517       -1.0480351214       -8.1827921283
  H        12.3313731246       -1.5406798599       -7.7237996936
  H        13.4969222376       -1.6750577072       -8.9719750439
  H        12.8425737980       -0.1006589601       -8.5645512392
  H        -3.3350296057       14.4737704362       16.3271676973
  C        -2.9981465395       13.4750658430       16.4743892300
  H        -3.9836528104       13.0405144517       16.7780659209
  C        -2.0495492184       13.3293816972       17.6381873501
  C        -2.4061337983       13.2039445188       15.0741682792
  C        -2.7440243040       13.4304233130       19.0128207725
  H        -1.4536238997       12.3896515369       17.5783627182
  H        -1.2286572592       14.1166698788       17.5352481075
  H        -2.7672588495       12.1916495175       14.8281815304
  H        -2.8789577927       13.8229447211       14.3555391299
  H        -1.3258874523       13.4085257422       14.9382022864
  C        -1.6242954536       13.2337238430       20.0468695616
  H        -3.6553093216       12.8563006112       19.1418624575
  H        -3.2061964195       14.4190724278       19.1692544057
  C        -2.1363195558       13.1204091980       21.4727842745
  H        -1.0140344310       12.3443900590       19.6912916760
  H        -0.9495359491       14.1186242134       19.9880982172
  C        -1.0455186626       12.6273292559       22.5346037736
  H        -2.9484666919       12.3747213571       21.4135977407
  H        -2.6848401946       14.0548845474       21.7869303292
  C         0.1936271789       13.6142364822       22.6869312969
  H        -1.5213403171       12.5116683483       23.5664128106
  H        -0.7642710177       11.6114360130       22.2377899538
  C         1.4341809441       13.0574429404       23.4240739706
  H         0.5409430388       13.9229331607       21.6905259784
  H        -0.1672228563       14.5756572558       23.0623875032
  C         1.7601302002       11.6892253583       22.7760278838
  C         1.0884299748       12.4326792095       24.7027432990
  C         2.6898373403       14.0199516603       23.3050920039
  C         1.5533060191       10.6152547440       23.5650347479
  C         2.3232320091       11.3135825646       21.5522602527
  C         1.1420654090       11.0581589970       24.7848540902
  C         0.5167240243       13.0878100641       25.7671829710
  H         2.8706558675       14.3570649072       22.2631521441
  H         2.5306419212       14.9416241458       23.8715627585
  C         3.9833940835       13.3450623863       23.8600275418
  S         1.8696417207        9.0460803662       22.7961917165
  C         2.2865870829        9.9245432296       21.3988326801
  H         2.6351340535       12.1216539938       20.8598235006
  C         0.5782182307       10.4342008599       25.8861030426
  H         0.3401696736       14.1317904393       25.6242961300
  C         0.0163505433       12.4003596540       26.8635496275
  H         4.3132297888       12.6475646924       23.0941320881
  H         3.7232354361       12.7501768202       24.7757229073
  C         5.0847286105       14.3963745601       24.1778996380
  C         2.5848443285        9.1861586561       20.1433798529
  C         0.0141884854       11.0737795884       26.9684973085
  H         0.7940216030        9.3657451358       25.9654808816
  C        -0.4875980330       12.7868155126       28.0502262656
  H         5.8668425041       13.9108855831       24.7604492066
  H         4.6717543352       15.1506945330       24.8432155349
  C         5.7201861403       15.1156475569       23.0215419862
  C         2.4756190064        7.7777214291       19.9263540105
  C         2.9922441775       10.0212750750       18.9275642957
  C        -0.3513393720       10.3844573720       28.2370371615
  C        -0.6704395446       11.6918392792       28.9446500836
  S        -0.9624527883       14.2430101145       28.8291383349
  H         6.3789465081       15.9517090938       23.4514743287
  H         4.9494552838       15.6027156686       22.4560587422
  C         6.6243654040       14.2118236656       22.2759868865
  N         2.1981346730        6.8289475753       20.8509218664
  C         2.8422975853        7.2310737887       18.6568920527
  C         3.1317595317        9.5082175566       17.7102139932
  H         3.1571831242       11.0782155554       19.0517948300
  C         0.7170257160        9.5523709091       28.9432717729
  C        -1.6468022589        9.5011731974       28.1247489947
  C        -1.0203839293       12.0454663815       30.2397965886
  C        -1.2824359055       13.3967791184       30.2899846878
  H         7.6655910491       14.5209587565       22.2426422682
  H         6.6639471601       13.2340263351       22.7123889794
  C         6.1422010288       13.8165543759       20.8623808436
  S         2.1555838190        5.4086092187       20.1013114299
  N         2.6894210859        5.8626247411       18.6353704252
  C         3.0272017366        8.0624961135       17.4873613942
  H         3.3184658220       10.1587109886       16.8794561495
  H         0.6380878393        8.5425012309       28.5178506221
  H         0.3823643985        9.4324163220       29.9867647312
  C         2.2084605919       10.1388857777       28.9979256536
  H        -1.3873660557        8.6274828399       27.4347597384
  H        -2.0172917008        9.0768373915       29.0861963241
  C        -2.9233968567       10.2704662296       27.6924187701
  H        -1.1511327423       11.3162064471       31.0249275472
  C        -1.6786931440       14.1426847987       31.5653843896
  H         5.9292585612       14.7025905285       20.2486657988
  H         5.1130051696       13.3647619348       20.9120335921
  C         7.0845746799       13.0837440548       19.9217936112
  C         3.1616827047        7.3953206045       16.1748124087
  H         2.8031006259        9.9662185519       28.1282667556
  H         2.0465004684       11.2367743163       29.0214843042
  C         2.9800251598        9.7156270323       30.2248901045
  H        -2.6484687009       10.9265589510       26.8401642228
  H        -3.2823695911       10.8899497160       28.4618166455
  C        -4.0631814160        9.2901123207       27.3509737126
  C        -1.7229690656       15.5545573806       31.7352925186
  C        -1.9358209352       13.3649505004       32.7931331631
  H         8.0870721762       13.2168102525       20.4246026691
  H         6.9383229999       12.0295148470       20.0990316753
  C         7.1253873145       13.5488039217       18.5029216177
  H         3.1011873525        6.3130804286       16.1979204632
  C         3.4860171829        7.8157023290       14.9143588474
  H         2.9271697142        8.6380973694       30.3848392326
  H         2.7468180754       10.2733054818       31.1345432172
  C         4.5129464482        9.8748683292       30.0164348934
  H        -3.7145510017        8.7010262595       26.5235807246
  H        -4.1559773285        8.4650435074       28.0557006630
  C        -5.4618642627        9.9434483718       26.9810238621
  N        -1.5063998729       16.5244670934       30.7573818708
  C        -1.9489245675       16.1202919725       32.9456834387
  C        -2.1623453508       13.9386031775       34.0068906186
  H        -2.0806662962       12.2878567991       32.6616491371
  H         6.2031508186       13.4381772604       17.9786105117
  H         7.3194457462       14.5901273276       18.5675648047
  H         7.9197291887       13.0587567786       17.9963880549
  S         3.9893427442        9.4501423341       14.6194175212
  C         3.6736261597        6.9254666938       13.7926991909
  H         4.6888688813       10.5964924697       29.2197466019
  H         4.9438679525       10.3560619344       30.8399092733
  C         5.2309880426        8.6251731712       29.6103383734
  H        -5.4086989180       11.0339229894       27.0667677492
  H        -6.1647376267        9.6633100421       27.7045582681
  C        -5.8516000059        9.8171766181       25.5136758562
  S        -1.5472628764       18.0385640376       31.4600050454
  N        -1.8275554067       17.5273718470       32.9497969883
  C        -2.2276714340       15.3650384977       34.1513901375
  H        -2.4348252191       13.2968858339       34.8722991299
  C         4.4452003183        8.8604322590       13.0263885367
  N         4.1776312412        7.5750796790       12.7383578306
  O         3.5695035402        5.6843089298       13.8547773732
  H         6.1774155519        8.8342895076       29.1295861433
  H         4.6235170614        8.0806008223       28.8822419232
  C         5.6366447531        7.9732321526       30.9709955883
  H        -5.0243148873       10.1400047964       24.9362219162
  H        -6.1459217039        8.7959598795       25.1668950738
  C        -7.0421000269       10.7227564335       25.2096369397
  C        -2.6196177869       16.1943443939       35.2830815354
  S         4.8845215269        9.9539643490       11.7253675418
  C         4.3826092490        6.8999156738       11.4695793331
  H         6.3971445110        8.5309592231       31.4863151608
  H         4.8311880255        7.9229385250       31.6189332948
  C         6.1111741034        6.5445685011       30.7015618102
  H        -6.8772926102       11.2015324256       24.2493246568
  H        -7.1697760980       11.5091267621       26.0574758789
  C        -8.3571035181       10.0157764098       25.0666407656
  H        -2.4734262004       17.2635788358       35.1729829329
  C        -3.1226136553       15.8501442304       36.4987481703
  H         5.1323910131        7.4543217695       10.8962672172
  H         4.8303283518        5.8942468294       11.5660822398
  C         3.0395152222        6.7714910767       10.7290743258
  H         5.4529665143        6.0234656741       29.9874670204
  H         6.0211968866        5.9309595401       31.5424914958
  C         7.4928393430        6.5299908300       30.1779691662
  H        -8.9323461121       10.3346193053       24.1943194495
  H        -8.2621465364        9.0085429247       24.8906488817
  C        -9.2728457103       10.1619285273       26.3428612944
  S        -3.4885550204       14.3776735302       37.0857427261
  C        -3.2395916354       16.9908775990       37.4096109551
  H         2.6199321141        7.7613536647       10.8156495081
  H         3.1768406211        6.4236089927        9.6653695199
  H         2.3430687324        6.1020098587       11.2400130201
  H         7.8585716370        5.5465497386       30.3158316558
  H         8.1248386548        7.3289961893       30.6822248291
  H         7.4163469764        6.7584942345       29.0764980799
  H        -9.2985105825       11.1531155760       26.8430134562
  H        -8.9602117518        9.3859821522       27.0947671289
  H       -10.3260809570        9.9481226126       26.0884543328
  C        -3.8781253380       15.1885282778       38.6018238897
  N        -3.7978480321       16.5504762866       38.5682484373
  O        -2.8281711928       18.1389092589       37.2073335191
  S        -4.3110598661       14.4686276731       40.1088495953
  C        -4.1060003005       17.4076629901       39.7545593663
  H        -4.3696794508       18.4092946560       39.4268611694
  H        -4.9478922300       17.0171077281       40.2549459750
  C        -2.8189818377       17.4060666354       40.7159191296
  H        -3.0735800925       17.6006088707       41.7943479735
  H        -2.2209285998       16.4946544591       40.6083963288
  H        -2.2368359827       18.2481972755       40.4024838265
