352
i=
  H         4.3087639896        1.0018306452       12.6389422081
  C         3.7549123982        1.9709351558       12.7886906372
  H         4.5611392726        2.7750687275       12.8390490340
  C         2.7813924886        2.2926105578       11.6186494145
  C         3.1600052071        2.0145536809       14.2278129859
  C         3.6263036642        2.5851707502       10.2981532874
  H         2.2208571203        3.2335881612       11.8758324007
  H         2.0839809022        1.4778098752       11.4893919403
  H         2.5775164269        1.2128843549       14.6933243808
  H         2.5587008872        2.8560944691       14.3074281138
  H         3.9286606762        2.1275374204       15.0289708140
  C         4.4345330502        1.3761876393        9.7984353638
  H         2.9485515086        2.7533543728        9.4479426701
  H         4.2263295590        3.5007869662       10.4340211931
  C         5.1959846471        1.5961533568        8.4634717978
  H         3.5800020100        0.7419555912        9.6183850547
  H         4.9834618665        0.7676020111       10.5595985101
  C         6.2746459490        2.6120852811        8.7031145457
  H         4.5257663923        1.9597245103        7.7630228318
  H         5.6298048674        0.6729957840        8.0411005038
  C         7.5214632530        1.8618269805        9.2645855877
  H         6.5482759350        3.0484978526        7.7694017401
  H         5.9773117608        3.3974026408        9.4153551529
  C         8.8161666469        2.6678918622        9.3484327941
  H         7.7509501488        1.0953564858        8.5921774129
  H         7.2628550120        1.3576632006       10.1672316303
  C         8.4963447612        3.9541622531        9.9970463628
  C         9.3433130813        3.3485643939        8.0743075127
  C         9.9488054748        2.0047601980       10.1081951914
  C         8.7294082942        5.0745174913        9.2433224511
  C         7.8520517449        4.3387270619       11.2051232143
  C         9.2755006524        4.6730768680        8.0173784714
  C         9.7055118785        2.7194300202        6.8930049336
  H         9.3867933336        1.5313326741       10.9351813194
  H        10.2707571376        1.1762889478        9.5272289290
  C        11.1038010039        2.9414486438       10.5271970238
  S         8.2750186038        6.5788889983        9.9037073729
  C         7.7545413521        5.7170746677       11.3064192631
  H         7.6011956917        3.5780204107       11.8946758620
  C         9.6951990734        5.3442167429        6.9006853957
  H         9.5531980000        1.6399491103        6.7718166233
  C        10.0577752628        3.3449501449        5.7422095944
  H        10.6947890944        3.8727869506       10.9046753729
  H        11.8295950031        3.1596824088        9.7756365511
  C        11.9084118399        2.4190898139       11.7219649262
  C         7.3716631541        6.3520137872       12.6039325271
  C        10.1237975145        4.6978413075        5.7386307507
  H         9.7809678483        6.4184643177        6.8931741052
  C        10.5217504863        2.8835230497        4.4875819292
  H        12.7337643465        3.1876413577       11.8352925788
  H        12.4655503101        1.4756101759       11.4185863457
  C        11.0894524196        2.1103249355       13.0070028483
  C         7.6456979807        7.7202769329       12.9238983397
  C         7.0248069038        5.5079058088       13.7679240953
  C        10.5664619152        5.3080575965        4.4715631310
  C        10.7957545872        3.9844307844        3.6710738142
  S        10.7786749664        1.3778869054        3.7194840119
  H        10.0987877824        2.4929274530       12.8634046222
  H        11.0646802398        1.0172090217       12.9777759944
  C        11.6302223403        2.6651828046       14.3054916575
  N         8.0630763137        8.7550342598       12.0591581163
  C         7.2556651151        8.2923488332       14.1195548229
  C         6.6705017783        6.0813679403       14.9883586147
  H         6.9792450664        4.4243244580       13.5555158680
  C        11.8604692669        6.0976842845        4.6504659049
  C         9.4250442293        6.0553622560        3.6852982523
  C        11.1899668346        3.5904207997        2.3990421286
  C        11.1184455858        2.2407538754        2.2612535918
  H        10.6881479273        2.9293971823       14.8119287745
  H        12.1654478608        3.5506394075       14.1732009340
  C        12.4773911343        1.6801896706       15.1044295190
  S         7.7821709368       10.2131071247       12.7141385896
  N         7.3154831231        9.6942018020       14.1759725961
  C         6.8211930275        7.5349369188       15.2429442110
  H         6.2910539840        5.4940602665       15.8041931152
  H        11.6633891647        7.0037122102        5.2366006622
  H        12.1742631717        6.3677013851        3.6413188469
  C        13.0534321063        5.4639152524        5.2300256662
  H         9.1367498435        6.9420098677        4.2025276262
  H         9.9424154591        6.4042990272        2.7960022060
  C         8.1550479163        5.3113140217        3.3994368096
  H        11.4669667654        4.3854182017        1.6668790717
  C        11.4535796389        1.4763787387        0.9638342635
  H        11.9366478487        0.8427989662       15.3725045703
  H        13.1932836342        1.2808217010       14.3896773252
  C        13.3826772208        2.2964230322       16.2804133280
  C         6.5762151667        8.2258640731       16.4747341696
  H        12.8279972793        5.3662759368        6.3053862419
  H        13.5292565671        4.5134574068        4.9404460903
  C        14.2390253462        6.4658253230        5.0625219160
  H         7.8763034314        4.8308483099        4.3816233862
  H         8.1683023465        4.5678714694        2.5964203615
  C         7.1750059590        6.5045531359        2.9452604442
  C        11.5602873213        0.1224654365        0.7384405396
  C        11.6939722460        2.2812607899       -0.2173832680
  H        14.1116626091        2.9326551415       15.7655038858
  H        13.9400415430        1.5651151393       16.7789772498
  C        12.4291303733        3.0744211025       17.2427018460
  H         6.6593692066        9.3115139941       16.4673393698
  C         6.4038762342        7.7586547737       17.8108326567
  H        14.2241181068        7.3461499466        5.6038569172
  H        14.2851098782        6.7568591725        4.0169048796
  C        15.6512861978        5.9926418826        5.4775302332
  H         7.0580498867        7.2741553910        3.6890278494
  H         7.4216892120        6.9627343417        2.0039346546
  C         5.8059158262        5.9935352714        2.6469850985
  N        11.3882713562       -0.8797063410        1.6705199781
  C        11.9984227369       -0.3939358005       -0.4941785195
  C        12.0387851871        1.8283836298       -1.4769787014
  H        11.5676205099        3.3925940937       -0.1980354915
  H        12.8350776225        3.2396807503       18.2631756576
  H        11.5816850060        2.4795128684       17.3349169418
  H        12.1164288522        4.0578137016       16.8746650293
  S         6.1523416053        6.1974615860       18.2049520135
  C         6.3412062390        8.7683834896       18.9199225221
  H        15.9151384219        5.0216333075        4.9711938809
  H        16.5446567069        6.6140963718        5.1280929887
  C        15.6973983236        5.8405903793        7.0261312327
  H         5.2862344659        5.8170354739        3.6092493747
  H         6.0149026663        5.0115962329        2.1379104790
  C         4.9057524602        6.8241939027        1.6526905184
  S        11.3884716267       -2.2984649999        0.8410882342
  N        11.9144922594       -1.7791058327       -0.5336364739
  C        12.2760011480        0.3694083979       -1.6254945854
  H        12.1895252973        2.5375084126       -2.2503127148
  C         5.9495574474        6.7929340256       19.7626449253
  N         6.0368612868        8.1201725613       20.0057165444
  O         6.3701426264        9.9915924342       18.7593605007
  H        15.6630159436        6.7543432532        7.6011939959
  H        14.8294230027        5.2752834579        7.4340576096
  C        16.9170732037        5.0316824751        7.4359502813
  H         5.4785098786        7.2946065055        0.8777592836
  H         4.0902482801        6.2555480260        1.2127500555
  C         4.2329140035        7.9547581796        2.4252147266
  C        12.5236745574       -0.3061949479       -2.8028187663
  S         5.4075585751        5.8665509161       21.0821446651
  C         5.8278679082        8.7747099326       21.2868885740
  H        16.7821306964        4.7030699893        8.4745891738
  H        16.9826499812        4.1546453344        6.7210982384
  C        18.2428447263        5.9072783033        7.4262727863
  H         4.9165519684        8.5579278448        2.9843400003
  H         3.5637877987        7.5608131325        3.2390513947
  C         3.4625572118        9.0234951494        1.6573973692
  H        12.0381540173       -1.2366487743       -2.8656750571
  C        13.0915517432        0.2041452919       -3.9779670816
  H         5.4952342610        8.2082505697       22.2050497315
  H         5.0021281194        9.4194261972       21.1250320749
  C         7.1167792176        9.5706934748       21.6647054755
  H        18.6504306978        5.6539920568        8.4056413548
  H        17.7965730903        6.7930312798        7.2782250243
  C        19.3590422119        5.7925627826        6.4258852287
  H         2.6770551175        8.6890661943        1.0806994861
  H         2.9477523417        9.5087142610        2.5111466906
  C         4.2280601602       10.0899389410        0.8855566329
  S        13.8908098294        1.7220898501       -4.1383924956
  C        13.3511706957       -0.7640528405       -5.0292035118
  H         6.9833268652       10.6776543336       21.5236991702
  H         8.0273305404        9.2812087060       21.1924839780
  H         7.2382541159        9.5135066676       22.7323286256
  H        20.2557554499        6.3763737692        6.7746048328
  H        19.6138390933        4.7727449809        6.2858378367
  H        18.8885267145        5.9684712458        5.5016173491
  H         4.0506712479       10.0617761195       -0.1612419849
  H         3.8945336322       11.0956357271        1.0788208269
  H         5.3178013310        9.9749000355        1.0627797985
  C        14.4179005215        1.1616631394       -5.7183199937
  N        14.2160236244       -0.2136229797       -5.9454728621
  O        12.8797376182       -1.9274619667       -5.0475865933
  S        15.0696088529        2.1941111050       -7.0222293271
  C        14.5830060918       -0.7710010502       -7.1649281709
  H        14.7448565119       -1.7682320742       -7.0134993527
  H        15.5053210767       -0.3267774576       -7.5502222633
  C        13.4321653276       -0.6661405177       -8.1588864465
  H        13.2314571939        0.3810092212       -8.2547532917
  H        12.5053452776       -1.0550007139       -7.8554531575
  H        13.7707487142       -1.0081374133       -9.1136274370
  H        -2.9804836052       15.2577808068       16.3886446347
  C        -3.1180420575       14.2017721228       16.2561970098
  H        -4.1746463202       14.0355645760       16.4550962512
  C        -2.2535605669       13.5786060740       17.3784179122
  C        -2.6499460383       13.7295813441       14.8832483742
  C        -2.7340753162       14.0734411573       18.7927184881
  H        -2.4887187139       12.5233576450       17.2965154791
  H        -1.2219016555       13.6293944825       17.2350897847
  H        -3.0060259584       14.2292958160       14.0422478566
  H        -1.5606656901       13.8876093325       14.7282342114
  H        -2.8884338007       12.6300754155       14.8854645695
  C        -1.7422398605       13.5797854699       19.8341721757
  H        -3.7873233478       13.7963422183       19.0660700508
  H        -2.7367574930       15.1169661493       18.9076009641
  C        -2.3621098003       13.4236648183       21.2452138159
  H        -1.3456717076       12.6394131795       19.4565333496
  H        -0.8149284595       14.2136441592       19.7624804260
  C        -1.4036459445       12.6496335968       22.2003235218
  H        -3.2813068475       12.8330599806       21.3360601364
  H        -2.5623575944       14.4720454870       21.5857306713
  C        -0.2372345328       13.5886984029       22.5547387652
  H        -1.8945702221       12.3345390248       23.1174637021
  H        -1.0383928852       11.8011362108       21.7242079094
  C         0.9222180023       12.9425632230       23.2547135400
  H         0.1827787224       14.0489125731       21.6354709279
  H        -0.4649227628       14.3996012781       23.2723298287
  C         1.3864985437       11.5561584012       22.7073699009
  C         0.4432729281       12.2791705560       24.5698037449
  C         2.1895023927       13.8151311745       23.3918058212
  C         1.1235093980       10.4767870255       23.5463061598
  C         1.9202151413       11.1067084101       21.4555767919
  C         0.5319120314       10.9268852361       24.7075816699
  C        -0.0179747950       12.9317948584       25.7167042463
  H         2.5663566802       13.9942097642       22.4073272206
  H         2.0097569879       14.7244149257       23.9665848985
  C         3.3384150205       13.0948597357       24.1651796979
  S         1.7093214950        9.0035494645       23.0065527680
  C         2.1001024796        9.7890037789       21.4617580768
  H         2.0543312191       11.7445597011       20.5619385306
  C         0.0829533580       10.3378691595       25.9028671459
  H         0.0595970389       14.0302227198       25.8200293681
  C        -0.3729874537       12.3951704066       26.8998745894
  H         3.7465523718       12.2583664923       23.5509495100
  H         3.0178719927       12.5698231520       25.0406979588
  C         4.4680982013       13.9410892749       24.5325558476
  C         2.5494145657        8.9999682758       20.2720561741
  C        -0.3162705055       11.0470574891       27.0824971890
  H         0.0518849237        9.3362619144       25.9792000414
  C        -0.7289036001       12.9040676992       28.1015186853
  H         5.0309114765       13.3791162177       25.2562210041
  H         4.0356667414       14.8176121934       24.9101201791
  C         5.3037923342       14.4144673571       23.4718442510
  C         2.4479292391        7.5409905965       20.0242560238
  C         3.0905235267        9.7537827309       19.1106875793
  C        -0.6950546339       10.4209242722       28.4447898274
  C        -0.9418582500       11.8345172286       28.9702212302
  S        -0.8001608470       14.4815368424       28.8384041924
  H         5.9631547299       15.0904514921       23.9509305194
  H         4.7010832232       14.9816945242       22.7585940038
  C         6.0445769641       13.3026956209       22.7734899946
  N         1.9497358358        6.6163747997       20.8804099286
  C         2.6396251386        7.0466860596       18.7390076620
  C         3.3395842163        9.1263966776       17.8950635822
  H         3.3080878492       10.8060807817       19.3438948312
  C         0.4021854188        9.7322284226       29.1865749227
  C        -2.0334629248        9.6562157732       28.3397341445
  C        -1.2381310307       12.2867873290       30.2876024309
  C        -1.2415171381       13.6743717073       30.3773474056
  H         7.0829728775       13.4722834473       23.0799895401
  H         5.7581170517       12.4014860113       23.2624435426
  C         5.9886275150       13.6654570052       21.2974037647
  S         1.9880717003        5.1832502469       20.2043187883
  N         2.3256499029        5.7153500563       18.6919561372
  C         2.9488675271        7.7626256092       17.6122835652
  H         3.8710595608        9.7741171410       17.1692644541
  H         0.7301646437        8.8323631806       28.6432795255
  H         0.0048619314        9.2257040007       30.1051150131
  C         1.6700479050       10.5342934660       29.5769617029
  H        -1.9253787680        8.8151634200       27.6948903400
  H        -2.3393353465        9.2253295395       29.2598154208
  C        -3.1855966090       10.3902431907       27.7897106744
  H        -1.5247709765       11.6844293634       31.0512090524
  C        -1.5433916046       14.4239864944       31.7061131145
  H         5.7050161000       14.7263527942       21.0482886377
  H         5.1513460481       13.0963508243       20.9014893233
  C         7.4367977460       13.4581810252       20.6584945073
  C         3.2255786030        7.0373604817       16.4027385129
  H         1.8702386387       11.2410545691       28.8418272714
  H         1.5179017759       11.1471061006       30.4675200501
  C         2.8403418605        9.6008496545       29.9023304701
  H        -2.9619890599       10.9138816463       26.8233817661
  H        -3.4225778669       11.1097586589       28.5672462759
  C        -4.3683205858        9.4652977178       27.4310975777
  C        -1.6720349386       15.7994408846       31.8898255420
  C        -1.8937741694       13.7275164461       32.9184706167
  H         8.1012920919       14.3268983216       20.9119520463
  H         7.8247854546       12.5491496233       21.1337042461
  C         7.2596067228       13.2898439246       19.1509814176
  H         3.3119862075        6.0384934168       16.4703920129
  C         3.5114521766        7.4090885067       15.1278358746
  H         3.0711058252        9.0018254314       29.0378480743
  H         2.5892590380        8.8757156578       30.6745882026
  C         4.1380307586       10.2851337105       30.3069739635
  H        -4.1353151022        8.6415201294       26.7475856676
  H        -4.8109565411        8.9783747611       28.3151925053
  C        -5.5597605311       10.3628035775       26.9561359810
  N        -1.4044498018       16.7856892283       30.8898495612
  C        -1.9728297178       16.4411973491       33.0749249005
  C        -2.2227684305       14.3064732624       34.1294444412
  H        -1.8172805505       12.6761516993       32.8440939390
  H         6.3896948029       12.6362566824       19.0703382067
  H         7.2344443333       14.3045950042       18.7251106799
  H         8.0503527655       12.7621856242       18.8345522913
  S         3.6866202763        9.0243791690       14.6519123185
  C         3.5985888608        6.4258900011       14.0742464695
  H         4.5049688675       10.9596203516       29.5290032492
  H         3.9674893689       10.7347365305       31.2756903631
  C         5.4092604874        9.2742437981       30.4263965719
  H        -5.2371800965       10.9844033211       26.1366151325
  H        -5.9505663569       11.0653469110       27.6192784455
  C        -6.7384950913        9.6647446736       26.4119766789
  S        -1.4706597549       18.3092805897       31.5383634666
  N        -1.9449897870       17.8720054898       32.9984679946
  C        -2.3428271888       15.7825212648       34.2282195114
  H        -2.4904672434       13.6847997667       34.9861136131
  C         3.8727279110        8.3914186975       13.0273671357
  N         3.8808506833        7.0799833777       12.8863459002
  O         3.4286343483        5.2128885363       14.2214954223
  H         6.4061130318        9.7470912880       30.4814803614
  H         5.4456926823        8.6519378989       29.5290783825
  C         5.2933791022        8.5681384839       31.6601413911
  H        -6.3915939951        8.7182676179       25.9464093124
  H        -7.2654581979        9.2357960802       27.2480436927
  C        -7.7233647228       10.4633151289       25.6488972795
  C        -2.6044675049       16.5079869058       35.4333922179
  S         4.4383336079        9.3393045735       11.6262788642
  C         3.9788473924        6.4333267984       11.6129173696
  H         5.6294562391        9.2665223966       32.3711054167
  H         4.3559374447        8.1342696290       31.9058449703
  C         6.1242456897        7.2777838000       31.5586197614
  H        -7.4230328810       10.6973542648       24.6060003834
  H        -7.8047485925       11.3651353046       26.1857429290
  C        -9.0360328193        9.6425344294       25.4460828284
  H        -2.3536266635       17.5227390922       35.3018437957
  C        -3.1233382763       16.1147504000       36.6568271869
  H         4.8054641379        6.6788464010       11.0183427704
  H         4.1910528884        5.4263433596       11.9321847947
  C         2.7398537484        6.6174252669       10.8056697412
  H         6.4549046605        7.0829026702       32.5823492066
  H         7.1047818991        7.5188929584       31.0460725449
  C         5.3510956995        6.0765207181       30.9517972865
  H        -9.5350428976        9.8038105715       24.4916920405
  H        -8.7228416843        8.6073215523       25.5233781284
  C        -9.9125419749        9.9717950351       26.5895181746
  S        -3.8583526560       14.6234488450       37.0062799953
  C        -3.3030012700       17.1355259535       37.6810061590
  H         2.2158862586        5.6549562892       10.7055656388
  H         1.9582942881        7.2877635917       11.2442282872
  H         3.0345767401        7.0289238078        9.7755596906
  H         4.5165095227        6.4357396309       30.4007195682
  H         5.0014733283        5.5146336466       31.7461710158
  H         5.9068269598        5.4520030337       30.2419325967
  H        -9.4307461455        9.8697423115       27.6070442064
  H       -10.7242832513        9.2616891597       26.6673808779
  H       -10.3363844224       10.9807469978       26.4974309328
  C        -4.2672954775       15.2747722563       38.6248705305
  N        -3.9688654162       16.6484424414       38.6753668967
  O        -2.9035273464       18.3099435364       37.6103292209
  S        -5.1615090281       14.4175486906       39.9090465159
  C        -3.9478599365       17.3615552652       39.9855398868
  H        -4.0052088264       18.3759256603       39.9174581526
  H        -4.8675387741       17.0965477606       40.5605879861
  C        -2.6098870111       16.9123042395       40.6372540630
  H        -2.4629589693       17.1595600184       41.6872063934
  H        -2.3621531442       15.8288447423       40.5099578842
  H        -1.8793652898       17.5220229859       40.1058985200
