352
i=
  H         4.4081320805        1.0333895452       12.9596992189
  C         3.8638220713        1.9917433901       12.9392710014
  H         4.6708923576        2.7405679781       12.9996423158
  C         3.0277959901        2.0539811249       11.6362233972
  C         2.9405064475        2.2828688873       14.1189244205
  C         3.9304246754        2.4788806175       10.4782109248
  H         2.1283235072        2.7402724242       11.6595169533
  H         2.6138055787        1.1476088129       11.3595314615
  H         2.0887054716        2.9016570094       13.8792233851
  H         3.5277807234        2.9573678176       14.7715287936
  H         2.7339642502        1.3505232941       14.6295622770
  C         4.7040395287        1.3707636621        9.7591513102
  H         3.2624673702        2.9460975195        9.8104769673
  H         4.6560232153        3.2327131262       10.9040252768
  C         5.4508535020        1.7857715978        8.4194985792
  H         3.9678247771        0.6284510957        9.5650632204
  H         5.3934068570        0.8442772541       10.4529293756
  C         6.7135205090        2.6403592645        8.5573701648
  H         4.6675448764        2.2403149356        7.8120390543
  H         5.6473838614        0.9880588895        7.7606931221
  C         7.8970893846        2.0152505921        9.2486592743
  H         7.0979356263        2.8853578723        7.5338975587
  H         6.4789050269        3.5963956288        8.9816358800
  C         9.1174026784        2.9248081367        9.4626613618
  H         8.1841488197        1.1449015708        8.6572481607
  H         7.6577635159        1.6841914107       10.2848881537
  C         8.7249836172        4.2055204731       10.1453978341
  C         9.5456667787        3.5548472787        8.2048433904
  C        10.3426160247        2.3334129327       10.1713265518
  C         8.9634229592        5.3076887537        9.3269177016
  C         8.2105766327        4.5916572882       11.4262256500
  C         9.4757616697        4.9187167132        8.0890625854
  C        10.0195298315        2.9433695334        7.0559862771
  H        10.0049885114        2.2680346644       11.1941771482
  H        10.5668161740        1.3470756925        9.8502477122
  C        11.6420135202        3.1030488522       10.2399168870
  S         8.5700621857        6.7633827805       10.0712969816
  C         8.0794116857        5.9381303344       11.4614294615
  H         7.9696069758        3.8029220009       12.1294081629
  C         9.8298764510        5.5959239532        6.9702201219
  H        10.1757429196        1.8900962220        7.0180680778
  C        10.4108204227        3.6038616290        5.9103325679
  H        11.3869440770        4.1648928873       10.2504610808
  H        12.1545746976        2.8521771642        9.3265111226
  C        12.4518244624        2.7153890729       11.3604584870
  C         7.6147681858        6.6017723905       12.7207294944
  C        10.3014884525        4.9694651103        5.7885449930
  H         9.5955406368        6.6894507882        6.9057874253
  C        10.8494360322        3.1784787134        4.6676959261
  H        13.4833909915        3.1367568625       11.1955727553
  H        12.5808943271        1.6074754915       11.1751080596
  C        11.9263980370        3.0442638825       12.7973446244
  C         7.5020805025        8.0039965327       12.8848535464
  C         7.3840865261        5.8380848938       13.9662248057
  C        10.7579621051        5.6007413893        4.5258600516
  C        11.0018778894        4.2672890095        3.8516051188
  S        11.1125418876        1.7111773865        3.9898221547
  H        11.8925947659        4.1127756247       12.9534052570
  H        10.8881972134        2.8454142934       12.8508908363
  C        12.7705809934        2.3885063924       13.8272036225
  N         7.7043419888        8.9520521340       11.8671802431
  C         7.2613345017        8.5810106200       14.1449885123
  C         7.0879251693        6.4087314859       15.1876860086
  H         7.2884072378        4.7990951177       13.9399102400
  C        12.0408205158        6.3814678687        4.7700147859
  C         9.5439953005        6.3379489888        3.8774094715
  C        11.2494665496        3.8674846099        2.5471564925
  C        11.4323164262        2.4988775773        2.4626599696
  H        13.7442270994        2.7887643024       13.8817889431
  H        12.9136718704        1.4017274996       13.5096176127
  C        12.1975386948        2.4073191534       15.1939799087
  S         7.7978803259       10.4269389205       12.5757236428
  N         7.3507342585        9.9632108357       14.0639392683
  C         7.0080077943        7.8428770040       15.3292612282
  H         6.8144071220        5.7829922394       15.9800538137
  H        11.7786306297        7.1061784277        5.5930650487
  H        12.1643868262        7.0833718660        3.9824437021
  C        13.2563512335        5.6077992209        5.2212752201
  H         9.1771515526        6.9521387877        4.6447995771
  H        10.0256558622        6.9495260598        3.0662977863
  C         8.4106249924        5.4935577583        3.4553861777
  H        11.4323678735        4.6505785316        1.8368186836
  C        11.7560694596        1.7733895749        1.1571717350
  H        11.6926177246        3.4109339854       15.3658678869
  H        11.4370412185        1.5921011702       15.1880027175
  C        13.2023071084        2.2369454296       16.3876528116
  C         6.7456077736        8.5554975579       16.5655780453
  H        13.0459664166        5.0352143127        6.1453305583
  H        13.4809768938        4.7350593755        4.5899604669
  C        14.4679245710        6.5010277668        5.4642757555
  H         8.0040064839        4.9544709210        4.2649486140
  H         8.5579332222        4.7670078331        2.6680399044
  C         7.3089282995        6.3136625568        2.9307217448
  C        11.8446001997        0.3727411513        0.9650504079
  C        11.9394694164        2.6545556777       -0.0483532894
  H        13.8688620182        3.0575880652       16.2515194816
  H        13.7526733064        1.2594051759       16.1891026615
  C        12.7221418794        2.3147673329       17.7805709215
  H         6.6506787014        9.6644836460       16.3625288086
  C         6.4471697844        8.1161763729       17.8607880432
  H        14.1085231229        7.4545678974        5.9018521398
  H        14.9031570020        6.7114527720        4.5198884136
  C        15.4746107186        5.8099135804        6.4848708349
  H         6.8199668309        6.7205549920        3.8675385182
  H         7.8003901395        7.2043569182        2.4303358217
  C         6.3236560378        5.7551425320        1.9829590544
  N        11.6875934338       -0.6210126591        2.0422342528
  C        12.1847248548       -0.2054419239       -0.2774455649
  C        12.2985285886        2.0365473062       -1.2600165354
  H        11.7421828172        3.7454168609       -0.0386907914
  H        11.7447862653        1.9166888542       17.8743829644
  H        12.5919657018        3.3187014992       18.1092765943
  H        13.4193684055        1.7751160109       18.4629735335
  S         6.2247364316        6.5401093574       18.3902100247
  C         6.2850938707        9.1614284669       18.9095602549
  H        15.8355800155        6.5437922119        7.2534357064
  H        15.0460772165        4.8690055352        6.9557867556
  C        16.8246384073        5.5407714003        5.6949400917
  H         6.0417023086        4.7021621946        2.1772909061
  H         6.6628267237        5.8358723167        0.9191473993
  C         4.9960008984        6.5099438855        2.0012295289
  S        11.8787636860       -2.0922342533        1.3560575216
  N        12.1559989455       -1.6023091554       -0.2153501613
  C        12.4327389652        0.5520011013       -1.4373421459
  H        12.2488819361        2.7107665124       -2.1544721717
  C         5.8506549933        7.2836058612       20.0571060249
  N         6.0607166419        8.6276182532       20.1423522232
  O         6.3125822779       10.3344199392       18.5724796303
  H        16.5114812563        4.9446722307        4.8065336248
  H        17.2430620412        6.4741505357        5.4152954345
  C        17.8639658375        4.7389155813        6.5513655065
  H         4.2098747648        5.8989072603        1.6120086903
  H         4.7605602474        6.6834562527        3.0558797304
  C         5.1986060957        7.8347017976        1.2157748621
  C        12.7343244186       -0.1577426097       -2.6615953983
  S         5.4548131119        6.3509845970       21.4946186294
  C         6.0228312610        9.4368232294       21.3788140140
  H        17.4522408418        4.0260928348        7.2563591507
  H        18.4744426305        4.0586400769        5.9464669665
  C        18.8150632904        5.7040824250        7.2198385866
  H         5.5773360406        7.7784513048        0.1632319288
  H         6.0426570935        8.3583850009        1.7952135050
  C         4.0141653842        8.7853601012        1.3005069356
  H        12.7188986756       -1.2264098381       -2.4823572162
  C        13.3240215457        0.1790687917       -3.8322034612
  H         5.5585047776        8.7677714209       22.1809313407
  H         5.2823039252       10.2586891345       21.3148892985
  C         7.4711430822        9.7869881127       21.7888549074
  H        19.2010733278        5.1257710496        8.0551591397
  H        18.2852085461        6.5712005124        7.5839781929
  C        19.9608140395        6.1460285364        6.2589325380
  H         4.3139308057        9.8211418340        1.0359672917
  H         3.3137106349        8.3920210126        0.5472786943
  C         3.3146497227        8.9111578654        2.6628960688
  S        13.8819465899        1.7891664847       -4.2516849547
  C        13.5356799849       -0.8858853088       -4.8695264176
  H         7.3578243489       10.2529550281       22.7308493475
  H         8.0464717343       10.2856190724       21.0668669669
  H         7.9816134584        8.8738092451       22.0092267629
  H        20.2333290417        5.4811537304        5.4299599179
  H        19.6903219382        7.0695860171        5.7957523970
  H        20.8947206408        6.1613315700        6.7829572375
  H         2.6765483185        8.0419650472        2.8969185248
  H         4.0214264010        9.0685259737        3.4666059891
  H         2.6270263785        9.7801632588        2.5430955497
  C        14.2217410812        1.1298202261       -5.7663831989
  N        14.1332895196       -0.2307022881       -5.9070324810
  O        13.1839941419       -2.1136548703       -4.8702317213
  S        14.7908877472        2.0998116853       -7.1421133363
  C        14.3680375870       -1.0247288687       -7.1275800553
  H        14.8400279390       -1.9827563461       -6.8991471996
  H        15.1659456139       -0.5855381742       -7.7066685525
  C        13.2012781204       -1.2663690916       -8.1165117102
  H        12.7867625062       -2.3174900535       -8.0510159259
  H        13.5197314784       -0.9573193526       -9.0865209406
  H        12.3780623982       -0.6215439129       -7.8860624417
  H        -2.4548581644       14.9028153100       16.3565352064
  C        -2.9871930000       13.9892497326       16.5025333058
  H        -4.0227039183       14.1902750689       16.8099858488
  C        -2.2848230054       13.0395513703       17.6180615864
  C        -3.1780205133       13.3822595762       15.1130966612
  C        -2.2273022475       13.7154393947       18.9708242058
  H        -2.7897891016       12.0241869554       17.5668695972
  H        -1.2692607819       12.7665554065       17.3031251298
  H        -3.4970316117       14.1546884594       14.4212109772
  H        -2.1833314876       12.9909731668       14.7806224229
  H        -3.8573436002       12.5571452706       15.1745321163
  C        -1.7092642486       12.7162560836       19.9881008802
  H        -3.1701489877       14.1102439794       19.2337861467
  H        -1.4577183430       14.5601491533       19.0086236993
  C        -2.1619290342       13.2025410885       21.3396550790
  H        -2.1242904273       11.7623066332       19.7576415665
  H        -0.6509651134       12.5188417434       19.8443406786
  C        -1.4192391993       12.6866544896       22.5076817366
  H        -3.1639134093       12.7266519559       21.4577904222
  H        -2.4991246456       14.2618453956       21.4254331324
  C        -0.1786550221       13.6553607033       22.7211110694
  H        -2.0052231322       12.5971829084       23.4190694907
  H        -1.1328912049       11.6307700548       22.3045124238
  C         0.9931626812       12.9699056838       23.4475127931
  H         0.2115040871       14.0635899441       21.7921434328
  H        -0.4572915591       14.4870704440       23.3611880893
  C         1.2845188501       11.6006973437       22.7294821509
  C         0.5794301199       12.2796361927       24.7034061410
  C         2.2427976854       13.8167077994       23.5464905130
  C         1.0965652163       10.5040236851       23.5623983884
  C         1.7755516539       11.2087309551       21.4890606805
  C         0.6621897628       10.8948771554       24.8040602525
  C         0.2281835078       12.9690511874       25.8627504533
  H         2.4673991700       14.3655033978       22.6100279064
  H         2.0506550210       14.6294331343       24.2393654154
  C         3.4711492743       12.9723355768       23.9760260832
  S         1.3528540106        9.0248876952       22.7071195542
  C         1.8630174270        9.8734896525       21.3448557010
  H         2.0823943761       11.9166655571       20.6927606410
  C         0.2535615532       10.3176121370       25.9886002142
  H         0.3946585360       13.9999301729       25.8808047734
  C        -0.2194766329       12.3118653677       26.9629086812
  H         3.7128551055       12.1436862259       23.3295494705
  H         3.1968639098       12.4134980356       24.8743694664
  C         4.7573452394       13.7644203548       24.3548168188
  C         2.3378533253        9.2108760595       20.1422358009
  C        -0.2448631770       10.9736717424       27.0914551159
  H         0.1314793403        9.2291714982       26.0152048753
  C        -0.6573258127       12.7794385628       28.1951978995
  H         5.3119890647       13.0953112287       24.9882195050
  H         4.4815183201       14.6258238146       25.0084641265
  C         5.4936475085       14.2748166590       23.1394729775
  C         2.3879404408        7.8017107544       19.8856936192
  C         2.7489214276       10.0662385085       18.9912695207
  C        -0.6563164450       10.3314439243       28.4374484929
  C        -0.8835884940       11.7133836966       29.0760516506
  S        -0.9773818706       14.2609656768       28.8278855838
  H         6.0859143694       15.2050220405       23.3763716974
  H         4.6681636080       14.6367901207       22.4941924756
  C         6.3767027350       13.2607049290       22.3250628812
  N         2.1488924091        6.7887116410       20.8323643867
  C         2.6664630275        7.2859644061       18.6169360603
  C         3.1727606822        9.4415768371       17.8000242646
  H         2.6644067576       11.1494895455       19.0300483609
  C         0.4476835241        9.4872140078       29.2119814680
  C        -1.9766991042        9.5127129491       28.3032074495
  C        -1.2267501625       12.1881091008       30.3842597935
  C        -1.4113965471       13.5418858207       30.3727790167
  H         7.4414767843       13.1915284918       22.6619320580
  H         6.0760960299       12.2303008336       22.3962301722
  C         6.3714605700       13.6607478048       20.8800166438
  S         2.2924295162        5.3387266400       20.1002417943
  N         2.6193794676        5.8824456048       18.6188337870
  C         2.9810296472        8.0451619002       17.5200069692
  H         3.3074805594       10.1200009082       16.9781932825
  H         0.6317993398        8.5920214070       28.6326766501
  H         0.0948461908        9.2291550253       30.1412942086
  C         1.7657622844       10.2288349222       29.4818454609
  H        -1.8214491993        8.6332721732       27.6850796891
  H        -2.3343678158        9.1516917862       29.3232585348
  C        -3.1402159008       10.3413520628       27.7924784696
  H        -1.2440843353       11.4026896480       31.1536322590
  C        -1.7362914304       14.3039762766       31.5970624447
  H         6.0586355087       14.7079001927       20.8453197794
  H         5.6098341536       13.2473927762       20.2787164603
  C         7.6855020543       13.4743505389       20.1650959482
  C         3.2309215516        7.4139205766       16.2497419199
  H         1.8561450899       10.5265886371       28.4845800190
  H         1.6700843088       11.1166127460       30.1456928121
  C         2.8152171792        9.3079992132       30.0728764239
  H        -2.9452392347       10.8999584286       26.9240484060
  H        -3.3808861986       11.1354110384       28.5010127588
  C        -4.4217899600        9.5609233487       27.3072023030
  C        -1.7784151440       15.7557468584       31.6938210847
  C        -1.6922382520       13.6207413700       32.8729702932
  H         8.4113734306       14.2243279018       20.4788547601
  H         8.1521362536       12.4884563050       20.1909961899
  C         7.4785422820       13.6787491682       18.6686031268
  H         3.1657894565        6.3380875894       16.2871803527
  C         3.5486105434        7.8493254687       15.0176043679
  H         3.2809650264        8.7800185675       29.2754942560
  H         2.2780611571        8.5848220818       30.7018794701
  C         3.7461737128       10.0008393604       31.0458906296
  H        -4.0355997484        8.9604621965       26.4785952375
  H        -4.8068422480        8.7590861152       27.9704308962
  C        -5.5763757389       10.4109031476       26.7605371317
  N        -1.7539432030       16.5973037097       30.5624935390
  C        -1.9076029352       16.3804303085       32.8826437167
  C        -1.9727819061       14.3052513341       34.0578753241
  H        -1.4348455123       12.5634162541       32.8933944601
  H         8.2313345743       14.5005708234       18.4117772684
  H         7.6019536086       12.7687382547       18.0189951949
  H         6.5708987690       14.1327437987       18.3033600123
  S         3.7195883408        9.4234852328       14.5090385705
  C         3.7752126536        6.8192928849       13.9402297603
  H         3.8461221020       11.0073401164       30.7215463492
  H         3.2719303291       10.0323305221       32.0170208505
  C         5.0959818785        9.2947813549       31.0468546072
  H        -5.1707898959       11.2533851126       26.2920629019
  H        -6.0338438774       10.8316112663       27.6342827405
  C        -6.5599123618        9.6826789901       25.9578566328
  S        -1.8799846556       18.0947341386       31.1423113269
  N        -2.0341044851       17.7718630769       32.7653115258
  C        -2.0820907416       15.7731995443       34.1127757684
  H        -2.0458678784       13.8443828945       35.0687387582
  C         4.0981264454        8.7808092459       12.9300428975
  N         4.1342575477        7.4597795342       12.8333029773
  O         3.7981968256        5.5866678877       14.1112865152
  H         5.8453654835        9.9208195370       31.6581943740
  H         5.4825847304        9.2293865722       30.0776350168
  C         5.1949381895        7.9076887433       31.7585477499
  H        -6.0265607181        9.1609003318       25.0966443570
  H        -6.9846952443        8.8438067572       26.5226793389
  C        -7.5978092279       10.7554226868       25.4747261469
  C        -2.3635296238       16.5312572298       35.2508305226
  S         4.6259459212        9.7775581823       11.5482924907
  C         4.3763655204        6.7633759185       11.5251696542
  H         5.5413529446        7.9497878930       32.7802544781
  H         4.2264628017        7.4410773040       31.8932288460
  C         6.0172907861        6.8668871647       31.0130328684
  H        -7.2483114992       11.1454232034       24.4694548114
  H        -7.5689985579       11.7332467851       25.9728603313
  C        -8.9652293470       10.2320678042       25.3150916396
  H        -2.3587418961       17.6143345913       35.0968788881
  C        -2.8222693817       16.1388913696       36.5205602931
  H         5.1172761251        7.2837056894       10.8871383451
  H         4.8085682814        5.7748389269       11.7991046248
  C         3.0708188998        6.6764885806       10.7504408084
  H         6.9912026149        7.3713740007       30.7669562267
  H         5.5456554532        6.6103940867       30.0249503854
  C         6.2551552464        5.4988266522       31.5824457855
  H        -9.4298898419       10.6230409458       24.4776955690
  H        -8.9008399689        9.1003361792       25.1914081003
  C        -9.7008106108       10.3043282022       26.6267678424
  S        -3.3918088183       14.6735621909       37.1284005540
  C        -2.9627037827       17.2813649216       37.4766352659
  H         3.0424316780        7.1182520986        9.7580816580
  H         2.6911442007        5.6539771389       10.4473412739
  H         2.2787892327        7.0841481411       11.3613596994
  H         6.5567035004        4.8201004215       30.8026134740
  H         5.3709183367        5.1032688041       32.0951526022
  H         7.0987672186        5.4705154323       32.3336358452
  H        -9.5401795929        9.3561121092       27.1273336543
  H       -10.7909025144       10.2502589603       26.5816795742
  H        -9.2702716635       11.1867050096       27.2000730992
  C        -3.7948260527       15.5671433642       38.6979440284
  N        -3.5670680676       16.8992977015       38.6344913287
  O        -2.6810109933       18.4245096746       37.1608245245
  S        -4.6546443970       14.8588836174       40.0912442223
  C        -3.6010677069       17.8068243588       39.7333386345
  H        -3.5927982495       18.8230812030       39.3369098311
  H        -4.5552463687       17.6861828701       40.2523470677
  C        -2.4316652725       17.6472885284       40.7056370790
  H        -2.1092797822       18.6783104061       41.0080577604
  H        -2.8138400878       17.0667249433       41.5708347886
  H        -1.6174294103       17.1056441400       40.2665364895
