352
i=
  H         3.6048352352        3.7286881965       12.2066705451
  C         3.1270422922        2.8346792963       12.2282597435
  H         2.0819686504        2.8175320246       12.0810699267
  C         3.7826661503        1.7876773497       11.3189410301
  C         3.2471029366        2.5002582987       13.6959347448
  C         4.6938952944        2.3680955524       10.2724591550
  H         3.0529360685        1.0479878210       10.8940264118
  H         4.4276458653        1.1484342078       11.9654482465
  H         2.7439834141        1.5759999679       13.8341272683
  H         2.7362300277        3.2644815151       14.2387835011
  H         4.2926190530        2.3742580432       14.0017164155
  C         5.1842008385        1.2530604272        9.3542679738
  H         4.0245751357        2.9919460524        9.7091551203
  H         5.6288632991        2.9471608063       10.6138647619
  C         5.7993825257        1.7569264126        8.0680752491
  H         4.3812325461        0.6438037890        9.0475132370
  H         5.8868687207        0.5681979878        9.7968152898
  C         7.0835601869        2.6313730983        8.2569783942
  H         5.1022005863        2.2894444137        7.4212470941
  H         6.1040761812        0.9439871149        7.4962730925
  C         8.4024816790        1.9397757499        8.6791063278
  H         7.2698439020        3.2596930967        7.3660481066
  H         6.8669365493        3.4411699975        8.9620600526
  C         9.5913019254        2.9295868583        9.0259754824
  H         8.7388960442        1.2540187034        7.9094940564
  H         8.1099059714        1.2235518041        9.4067920381
  C         9.2511143786        4.2371383251        9.7304518516
  C         9.9805786320        3.6535892130        7.7440945476
  C        10.8512235499        2.2532677708        9.7263950635
  C         9.3536346152        5.3215215025        8.9182664836
  C         8.8072750238        4.6257293166       11.0403885409
  C         9.7978747804        5.0127990648        7.6625041496
  C        10.4934067642        3.1179287701        6.5751385196
  H        10.3830080208        2.0714586337       10.7525853679
  H        11.0852395472        1.2560449238        9.2763408078
  C        12.0587047090        3.1369231479       10.0105125088
  S         8.9609839010        6.7908676233        9.6688457683
  C         8.5505728908        5.9739419815       11.1481861652
  H         8.6301409030        3.8797532535       11.8224167324
  C        10.0388074820        5.7058133628        6.4970489819
  H        10.8228528335        2.0675473214        6.4344200550
  C        10.6822407289        3.7957751624        5.3717153997
  H        11.7529800972        4.0784902044       10.4352434935
  H        12.6815061652        3.4392566349        9.1215224596
  C        12.9881055750        2.5163238208       11.0251723812
  C         7.8809624656        6.6438054755       12.2775629148
  C        10.4700169940        5.1122224787        5.3094733297
  H         9.8926929972        6.7464647881        6.3120238150
  C        11.0989597856        3.4251887628        4.1071573174
  H        13.9026033072        3.0511891917       11.0552998402
  H        13.3445704250        1.5519422348       10.7038333860
  C        12.3699701231        2.4632960076       12.4495602950
  C         7.8625664327        8.0588092990       12.5753163355
  C         7.3781793164        5.7779507535       13.4024431300
  C        10.7668091474        5.8823338319        4.0388653644
  C        11.1710579467        4.5316591806        3.2732544295
  S        11.5040900548        1.9611277300        3.3509642305
  H        11.8485515403        3.3924996952       12.6550214304
  H        11.4580646767        1.8350053049       12.4391431675
  C        13.3209442970        2.1250224399       13.5932328431
  N         8.1839331050        9.0475344840       11.6672345362
  C         7.4872749474        8.5475321332       13.8295118870
  C         6.9774735312        6.3033987451       14.6037417104
  H         7.2420489818        4.7010520416       13.2898349052
  C        12.0594038486        6.6740554493        4.1734525108
  C         9.4781199663        6.5785705515        3.4537285489
  C        11.4561700494        4.1198919157        1.9535504760
  C        11.6387629408        2.7918021617        1.8392820999
  H        14.1211055834        2.8173605316       13.6598725994
  H        13.6114510512        1.0717385112       13.5792403567
  C        12.6234579602        2.3258178123       15.0177391511
  S         7.9646679920       10.4739515396       12.3828369466
  N         7.5763529318        9.9624253084       13.9210254635
  C         7.1399185562        7.7214636823       14.9266089323
  H         6.5861866615        5.6727585083       15.3432504549
  H        11.8250438125        7.4776910438        4.9475740995
  H        12.1382941343        7.1913448173        3.2260162618
  C        13.3134001975        5.9479851666        4.5756106790
  H         8.9661316171        7.0882997427        4.2476123248
  H         9.7743459191        7.3245950420        2.7576716509
  C         8.4349911499        5.6600525726        2.8889711016
  H        11.4011846911        4.7883664764        1.1088518243
  C        11.8378891540        2.0368581700        0.5536723118
  H        12.1965023030        3.2834613490       14.9727867127
  H        11.8013695171        1.6381268593       15.0952773648
  C        13.5524489011        2.3280176625       16.3090376728
  C         6.9690560220        8.2866252961       16.2169357435
  H        13.0984031728        5.3594611478        5.5050443184
  H        13.6298796012        5.2512487091        3.8500683284
  C        14.4943570610        6.7995477791        4.9247608952
  H         8.0440640178        5.0609381420        3.7014331131
  H         8.7526000673        4.9975564974        2.0415261119
  C         7.1981055801        6.3902192857        2.4718629216
  C        12.0800920651        0.6398865714        0.5143409390
  C        11.9163769137        2.7124973726       -0.7928784068
  H        14.2663742204        3.1455305743       16.2418126446
  H        14.2435055825        1.4666654210       16.4864424251
  C        12.8304291248        2.5534179666       17.6073859995
  H         7.1122070400        9.3427146801       16.1459091340
  C         6.6354965394        7.8691676275       17.4915025920
  H        14.2795003926        7.5128202598        5.7015038800
  H        14.7845002699        7.3274371538        4.0398761054
  C        15.6812857744        5.8842630109        5.2784841029
  H         6.8894828926        7.1617144063        3.1172862185
  H         7.2837277586        6.7829897890        1.4563511493
  C         5.9658427770        5.5025862877        2.3387648728
  N        11.9600056339       -0.2248963460        1.5994608356
  C        12.2740330825       -0.0672845127       -0.6376612135
  C        12.0990009871        1.9977437602       -1.9852955598
  H        11.7447634770        3.7451936109       -0.7756973326
  H        11.8772803724        2.0864169022       17.6301165694
  H        12.6794263914        3.6160946537       17.9931079073
  H        13.3964928223        2.1725637017       18.3199238415
  S         6.3263031330        6.2406708960       17.9980353698
  C         6.7027274669        8.8517532468       18.5786152425
  H        15.1914774461        5.0654611188        5.7287475695
  H        16.0713366456        5.6180807256        4.2936946583
  C        16.7461275970        6.5233358070        6.1956107608
  H         5.5255330157        5.4935966583        3.3183266450
  H         6.1844578718        4.4247115882        2.1469431032
  C         5.0061712674        6.0692318827        1.2764638508
  S        12.1093483202       -1.7407928565        1.0531879438
  N        12.4834992475       -1.4218241976       -0.4480346738
  C        12.3384286759        0.4875843558       -1.8877838754
  H        11.9953785089        2.5978911580       -2.8688545188
  C         6.0844265615        6.8769167896       19.7130352423
  N         6.2266951874        8.2732416069       19.7293627456
  O         6.9356869986       10.0050259028       18.3229285451
  H        17.2284651569        7.3422958836        5.7228122792
  H        16.2864888029        6.9323197915        7.0958205476
  C        17.6297679001        5.4083486825        6.6448972172
  H         5.5749840206        6.0320751566        0.3608856707
  H         4.1228660235        5.4205880670        1.1055397160
  C         4.4808765012        7.4773588202        1.6521795915
  C        12.5992123152       -0.3969939995       -2.9899452242
  S         5.4704745201        5.9951348573       20.9798495909
  C         6.1697239507        9.1435304869       20.9017547426
  H        17.0623870934        4.6531228003        7.1422345791
  H        17.9419032255        4.8999289174        5.7442441580
  C        18.7655698066        5.8959628131        7.5203153179
  H         4.8123322088        7.6124235191        2.6589242711
  H         3.4061373461        7.3743260301        1.6844758795
  C         4.8115534394        8.5753816648        0.7543620790
  H        12.3583625865       -1.4068862702       -2.8134912903
  C        13.1447757968       -0.2026718795       -4.2203388335
  H         5.5794493073        8.7417086084       21.7378703390
  H         5.6696095402       10.1086578234       20.5753398594
  C         7.5628887324        9.5533456426       21.4307704261
  H        18.7910360788        5.0666128785        8.2540637086
  H        18.5821982861        6.8934364692        7.9306579467
  C        20.0699172416        5.9648049742        6.7837006839
  H         5.8249495792        8.8554953153        0.9399257000
  H         4.7661685728        8.2338904666       -0.2769401895
  C         3.9276435856        9.8138992436        0.9048059843
  S        13.7781094016        1.3395110144       -4.7501074099
  C        13.2428874432       -1.2595992122       -5.2570776636
  H         8.3899307048        9.8073399933       20.7506631507
  H         8.1090093985        8.8391107433       22.0676225513
  H         7.5093736435       10.4787381791       21.9864406298
  H        20.5282714627        5.0152248613        6.3997197320
  H        20.0485615872        6.5848101732        5.9188904889
  H        20.7289773499        6.4156173755        7.4408844931
  H         3.5692422381        9.8976492896        1.8952534250
  H         4.5523163508       10.5963468300        0.4986872442
  H         3.0047066544        9.7088946894        0.3899637285
  C        14.0494886028        0.5612160685       -6.2353993883
  N        13.8434649441       -0.7570221763       -6.3224698224
  O        12.8717138933       -2.4302086581       -5.0954767818
  S        14.7309299575        1.3686813535       -7.6212958848
  C        13.9762777505       -1.5373442159       -7.5164473772
  H        13.9949925593       -2.5806776525       -7.3041184965
  H        14.8299566479       -1.3082820519       -8.1121760053
  C        12.8485603197       -1.4408037972       -8.4984008322
  H        12.5444370131       -2.3771469180       -8.9391197565
  H        13.1129592897       -0.8128322522       -9.3198412005
  H        11.9028881080       -1.0581537179       -7.9902515700
  H        -3.0599845351       14.6880504186       16.2202224938
  C        -3.1178044337       13.6373715058       16.1143846863
  H        -4.1398791582       13.3438300407       16.3028557137
  C        -2.1627547623       13.1446945843       17.2318864259
  C        -2.6675646877       13.1321930932       14.7753232218
  C        -2.7108506210       13.3960106042       18.6071241898
  H        -2.0457292474       12.1077084189       17.1172973062
  H        -1.1640115723       13.5769802175       17.0881377324
  H        -1.5870728553       13.4279974450       14.5752419709
  H        -2.7691827276       12.0415520987       14.6170452035
  H        -3.2084527195       13.6135494530       14.0263343986
  C        -1.6625971787       13.5867492029       19.6537062398
  H        -3.3660457747       12.5883645326       18.8827706230
  H        -3.3276255273       14.3475479487       18.6339151512
  C        -2.2323740286       13.7421005256       21.0320624720
  H        -0.9875626730       12.8252586666       19.5894436007
  H        -1.0548379962       14.5084620131       19.4526365189
  C        -1.4478270932       13.0263127084       22.1484154237
  H        -3.2441669399       13.2948810852       20.9679051255
  H        -2.2822121121       14.7943109762       21.3608130251
  C        -0.2014606347       13.9166162657       22.3862288324
  H        -1.9935671578       13.0161438380       23.0485876791
  H        -0.9864242416       12.0470331821       21.8251089598
  C         0.9043602385       13.3065079782       23.1977846328
  H         0.3072958888       14.2109033671       21.4516750641
  H        -0.4214802432       14.8662513103       22.8550812018
  C         1.4263585493       11.9851454413       22.5135326650
  C         0.4387120575       12.5237851002       24.3818213492
  C         1.9975768803       14.4023728257       23.4324373086
  C         1.3323554693       10.9112425112       23.3459588220
  C         2.1220301486       11.6779100414       21.3276454314
  C         0.6632146699       11.1745850087       24.5135505399
  C        -0.0717456439       13.1275489322       25.6240210947
  H         2.2367032725       14.9833665272       22.5208148937
  H         1.6279961505       15.2246812191       24.0401893981
  C         3.3766179820       13.9018315282       23.8922800622
  S         1.9376395212        9.4210456663       22.6860776599
  C         2.3433011322       10.2893407777       21.2342035919
  H         2.2523434938       12.4293166697       20.6319013401
  C         0.3304543501       10.5122859174       25.6526581616
  H        -0.1677360696       14.2101290128       25.6246066855
  C        -0.3394440625       12.4214251788       26.7387792867
  H         3.6766570075       12.9702112646       23.4200159580
  H         3.2097960730       13.4319879171       24.8783194282
  C         4.5766796938       14.8902139227       23.9017534463
  C         2.7348759619        9.5304844243       20.0031755153
  C        -0.2089582514       11.0424541723       26.8266252263
  H         0.4488419155        9.4918901904       25.6210298381
  C        -0.7493426807       12.7558256185       28.0052399720
  H         5.2480677272       14.5218177178       24.5759317615
  H         4.3232393094       15.8521965646       24.3819069594
  C         5.2052319583       14.9831405645       22.5194612537
  C         2.5847704635        8.1423796956       19.7115747186
  C         3.0694991766       10.2921558873       18.8050139322
  C        -0.4643956663       10.3162672999       28.1040215009
  C        -0.7593651387       11.6217776862       28.8564052097
  S        -1.0694190618       14.2470304652       28.8564473666
  H         5.8290903054       15.8823547723       22.6153912143
  H         4.4683589377       15.0966941577       21.7451673537
  C         6.1328062019       13.8134859431       22.1869105497
  N         2.0000077384        7.2168128133       20.5961124357
  C         2.7713365232        7.5518224799       18.4250240135
  C         3.3679292220        9.7146533464       17.5559274539
  H         3.2528648049       11.3200360930       18.9897074888
  C         0.7114406787        9.4782553902       28.7432428047
  C        -1.7573109318        9.5333955956       27.7585108228
  C        -1.0366205787       12.0170902122       30.2017645394
  C        -1.1978270279       13.3676935324       30.3197923484
  H         7.1931710111       14.2081222593       22.2734960869
  H         6.0201842589       13.1140083764       22.9983124627
  C         5.8599214506       13.0999055153       20.8269040183
  S         1.9663766525        5.7241704875       19.8835126384
  N         2.5105386808        6.1880055530       18.4304034449
  C         3.2474608576        8.2719456566       17.3248178659
  H         3.9179405652       10.3388448890       16.8703327815
  H         0.9422723298        8.6560096980       28.0775643234
  H         0.3159947529        8.9214312676       29.5467280088
  C         1.8725375736       10.3797687683       29.1083801449
  H        -1.6447944896        9.0292765243       26.8573187102
  H        -1.8956090587        8.8647090337       28.5817065478
  C        -3.0094482617       10.3757876162       27.5660246682
  H        -0.9183421453       11.2311440390       30.9629804224
  C        -1.4994190951       14.0505607621       31.6123146038
  H         4.7510601292       12.9142425998       20.7586085147
  H         6.2670899190       12.1209720002       20.9043425250
  C         6.3376948682       13.8792459512       19.4799418159
  C         3.4306297679        7.5643950338       16.0908232038
  H         2.1438594732       10.9687143962       28.2327091520
  H         1.5976333392       11.1054760664       29.7788137886
  C         3.1449986107        9.6478185219       29.5183627231
  H        -2.8686124779       11.1719050052       26.8008690464
  H        -3.2667275360       10.8292867018       28.5220242619
  C        -4.2414860405        9.5269842680       27.1883545289
  C        -1.5700244367       15.4657752054       31.7770711557
  C        -1.8118823012       13.2781969596       32.8688312735
  H         5.7773696809       13.4960437781       18.6171108746
  H         6.0815640777       14.8700272870       19.6055113081
  C         7.8706747825       13.7196100275       19.2058867480
  H         3.1209006769        6.5460567596       16.1824763887
  C         3.7751065363        7.8798003723       14.8104031345
  H         3.4748005696        8.9809218178       28.7539573671
  H         2.9816680441        9.0181257631       30.3929468078
  C         4.2675374029       10.6395073638       29.9545356594
  H        -3.9902144792        8.8282059672       26.3694044088
  H        -4.5657895298        8.9749645722       28.0601610515
  C        -5.4504324340       10.4538243723       26.7311971011
  N        -1.2376155696       16.4576522586       30.7858266801
  C        -2.0170219874       16.0403179219       32.9797027781
  C        -2.1887989392       13.8867515432       34.0161878781
  H        -1.8488490037       12.2226954234       32.8441912229
  H         8.4799202172       13.3564160390       20.0455478408
  H         8.0695910288       13.0289176147       18.3706741046
  H         8.3966737529       14.6032413574       18.9349354927
  S         4.2722722342        9.4455048297       14.2710634428
  C         3.8161392280        6.8268244586       13.7697275032
  H         4.1980122916       11.4973087932       29.3226649964
  H         3.9986445521       10.7986482144       31.0243585093
  C         5.6316992805        9.9602035364       29.8369863794
  H        -5.1016469957       11.2318278111       26.0473436423
  H        -5.9562869987       10.9591055036       27.5520109580
  C        -6.3508147951        9.7358311310       25.8100511517
  S        -1.7346336692       17.8785004649       31.3551170325
  N        -2.2266945862       17.4183082085       32.8637358615
  C        -2.2872256533       15.2883698314       34.1494406283
  H        -2.3773827615       13.2931320319       34.8663188072
  C         4.3836244963        8.7929568468       12.6696667022
  N         4.1289497869        7.4480849399       12.5996776517
  O         3.6093093698        5.6125109458       14.0362046973
  H         6.4913806345       10.6248314287       29.7557577613
  H         5.5706603513        9.4514510359       28.8976428011
  C         6.0424681608        8.8471008623       30.8139347820
  H        -5.8709963872        9.1775720829       25.0248096386
  H        -6.9435567915        9.0242059222       26.3449926351
  C        -7.1349539162       10.7712130054       24.9987706135
  C        -2.7414944424       16.0245570792       35.2888338797
  S         4.5960788240        9.7002428404       11.2090928688
  C         4.1569935087        6.5512015420       11.4674746710
  H         7.1741968144        8.9222734221       30.7571461855
  H         5.6333195635        9.0209804374       31.8814586669
  C         5.5122893495        7.4482454523       30.4671001886
  H        -6.5072688110       10.8787605119       24.1199558416
  H        -7.2239743336       11.7146575773       25.5367951428
  C        -8.4677115517       10.2743113499       24.5469758375
  H        -2.5410038149       17.1316559393       35.2556476019
  C        -3.3942120482       15.6648314756       36.4295752721
  H         4.8371700459        6.9614300653       10.7005518164
  H         4.7158825381        5.6618800875       11.8314547135
  C         2.7607647546        6.1424599241       10.9310275265
  H         5.1794790612        7.3973379484       29.4014404807
  H         4.6482721157        7.1925148068       31.0985925374
  C         6.5035038855        6.3417002999       30.8531452533
  H        -8.8421899839       10.7763242647       23.6398412954
  H        -8.3991860973        9.2655459392       24.2598610652
  C        -9.6015214575       10.4034892180       25.5559824488
  S        -3.9604518915       14.1349275993       36.7913003960
  C        -3.5001779693       16.6315995428       37.5416037977
  H         2.3519353906        6.8290371929       10.2361132333
  H         2.9464442374        5.1618562434       10.5206571287
  H         1.9698853835        6.0377812982       11.6291722695
  H         7.5365556597        6.6160343638       30.7055576150
  H         6.3354826242        5.4385965358       30.4474429184
  H         6.3025171260        6.2024239700       31.8933521697
  H       -10.6038032267       10.5169394190       25.0629087920
  H        -9.3598738611       11.2077949300       26.2401736989
  H        -9.6645354540        9.5633284800       26.2564679476
  C        -4.2635683963       14.8015001327       38.3797058987
  N        -4.1131036586       16.1017026974       38.5986877739
  O        -3.0781724793       17.7805919065       37.4997034791
  S        -4.9520509346       13.8302324919       39.6881125654
  C        -4.3308833287       16.8320685925       39.8880592915
  H        -4.4337715794       17.9016565672       39.6951071522
  H        -5.2777129260       16.6028052578       40.3707658417
  C        -3.2016940721       16.5009818421       40.8242487178
  H        -2.4472886497       15.8363973416       40.4077918593
  H        -2.5347244680       17.3230260258       40.8983728535
  H        -3.4958459757       16.0937646974       41.8121780717
