352
i=
  H         4.1380125741        3.5260946448       12.0355011684
  C         3.2369666272        2.8717821867       12.2375464848
  H         2.4716226214        3.4501260144       12.7006625095
  C         2.6907051103        2.2528713931       10.8968898270
  C         3.7831837297        1.9229239475       13.3131979198
  C         3.4661206800        2.4955974723        9.5902551700
  H         1.7364353143        2.6081764869       10.7912625756
  H         2.5293292267        1.2113296411       11.1381360855
  H         4.1170479113        0.9698315709       12.8243130687
  H         3.1896257366        1.7792588216       14.1313907443
  H         4.6687223656        2.3993364898       13.6569792795
  C         4.3592173060        1.3284668439        9.2120368064
  H         2.6907835035        2.6735241898        8.8478188887
  H         3.9885214004        3.4773005796        9.6298778283
  C         5.2951447379        1.6773715896        8.0123761251
  H         3.9504192574        0.3302607086        8.9860478390
  H         5.0899835342        1.2299410487       10.0503795691
  C         6.5690168953        2.5671818860        8.4966402833
  H         4.6790557990        2.1475518485        7.3466010606
  H         5.6100087721        0.7536705631        7.5077929267
  C         7.8422901510        1.8510743199        8.9650523215
  H         6.9295132477        3.1509002981        7.6086312424
  H         6.2825843516        3.2734146962        9.2810493018
  C         9.1596046661        2.7648642206        9.2038196235
  H         8.1452955818        1.0126616267        8.2500834926
  H         7.7297105944        1.2616286378        9.8909691029
  C         8.7417133481        4.1010153258        9.8206462871
  C         9.5413998584        3.4608442400        7.9743288994
  C        10.3901544649        2.0203379708        9.7166261312
  C         8.8455523688        5.1491648969        8.9612820988
  C         8.3517762938        4.4923425275       11.1216999760
  C         9.4475984139        4.7830006184        7.8220750023
  C         9.8750235646        2.8217033277        6.7789041634
  H        10.0090198295        1.6030842445       10.6396395974
  H        10.7366036182        1.1547408121        9.1311320241
  C        11.6251927534        3.0078857936       10.0787666390
  S         8.4034575461        6.6571522057        9.6877749837
  C         8.0741592313        5.8206727182       11.2030565694
  H         8.2421995245        3.7894641114       11.9145386132
  C         9.7748360833        5.3654816332        6.6550448489
  H        10.0417838687        1.7868306747        6.8603120953
  C        10.1993453432        3.4025330164        5.5924146259
  H        11.3189540797        4.0137184292       10.3837222997
  H        12.1444184010        3.0836071906        9.1066847769
  C        12.5583285778        2.3770506628       11.0888081981
  C         7.5059195448        6.4590195034       12.4437387543
  C        10.2357275515        4.7278225696        5.5048246734
  H         9.6687527475        6.4037199860        6.5061473349
  C        10.6665054696        2.9936932397        4.3649796295
  H        13.3192959172        3.1421559887       11.2140246648
  H        12.8945384666        1.4447178859       10.6398801467
  C        11.8254843676        2.3405121474       12.4736344160
  C         7.6250936141        7.8434053213       12.7737341785
  C         6.9330889842        5.6304294956       13.5170312902
  C        10.6263886498        5.3968765480        4.2406493564
  C        10.8608176719        4.0551858119        3.5670355048
  S        11.0049696344        1.5402696980        3.5438333216
  H        10.8622503022        2.8984044181       12.4698415574
  H        11.4834983236        1.3668644425       12.6446435959
  C        12.7278110708        2.6191967247       13.6326287491
  N         8.0118788432        8.8162966338       11.9010177676
  C         7.2586475051        8.3518681125       13.9837196909
  C         6.7131402427        6.1075649018       14.8268723457
  H         6.6102886901        4.6759424764       13.3453501779
  C        11.9326534769        6.1925919432        4.4813477581
  C         9.4554796620        6.2395162701        3.6974645384
  C        11.2650508348        3.7018430237        2.2341982726
  C        11.3982798545        2.3313125852        2.1137805987
  H        13.1357012524        3.5448741270       13.4060939019
  H        13.4995047988        1.8232001343       13.5396251111
  C        11.8635248772        2.4427585240       14.9301970317
  S         7.8464049916       10.2601604672       12.6173391752
  N         7.2223699623        9.7500572383       13.9904089262
  C         6.8737584222        7.5477564766       15.1015384162
  H         6.3279492648        5.4549459818       15.6013724211
  H        11.7272610007        6.8203847841        5.3876975605
  H        12.2138755506        6.7491940727        3.6445428064
  C        13.0871061420        5.3128425049        4.8877184770
  H         9.1517310008        7.0954416755        4.2890436346
  H         9.6533221221        6.7172760986        2.7242073494
  C         8.2554350548        5.4572773287        3.3390247101
  H        11.4458235270        4.5274890163        1.5515859525
  C        11.7745040778        1.5966557789        0.8281755048
  H        11.4807630490        3.4168745153       15.1343482410
  H        11.0703532444        1.6968832589       14.6712074597
  C        12.6991232938        1.8837978091       16.0714789891
  C         6.6974540163        8.1893330549       16.3717561310
  H        12.7880572115        4.5753228566        5.6564026007
  H        13.4542129092        4.6812373854        4.0163066207
  C        14.3061408390        6.0816030961        5.3131925847
  H         7.7571677321        4.9122989238        4.1676815774
  H         8.4143637527        4.7143010708        2.5741608975
  C         7.2206664859        6.4674902169        2.7316287155
  C        11.7079490910        0.2330945886        0.6335351837
  C        12.1880521905        2.4174445455       -0.3747154848
  H        13.7934880448        2.0301105233       16.0675806900
  H        12.6197600869        0.8125946441       15.9752856906
  C        12.3087791526        2.4486017201       17.4368160420
  H         6.9716788659        9.2775738247       16.4129367870
  C         6.4945545528        7.7349279177       17.6722264234
  H        14.0776473200        6.6375424501        6.2270856155
  H        14.5771048389        6.7869297200        4.5702037430
  C        15.5050008302        5.1856411577        5.6225245335
  H         7.2421568939        7.3035148294        3.3287685184
  H         7.3579134997        6.7324302168        1.7386783170
  C         5.8406473590        5.9134837959        3.0336184229
  N        11.4001569593       -0.7062977836        1.6174189988
  C        12.0608285786       -0.3183447921       -0.5483356521
  C        12.4635786318        1.9111142170       -1.6676990911
  H        12.2628727236        3.5193442622       -0.2553076223
  H        11.3230855027        2.1110281186       17.6402236335
  H        12.3178743216        3.5215525384       17.2994817472
  H        13.0150428455        2.0553227857       18.2148418797
  S         6.3258811938        6.1557057924       18.2000614431
  C         6.4224169064        8.7282358260       18.7907102121
  H        15.1124038341        4.1995261774        5.9128433683
  H        16.0905093982        4.9820445742        4.7340430986
  C        16.4624970711        5.8690557067        6.6351146413
  H         5.5202907822        6.2261196819        4.0362120661
  H         5.9001870839        4.8477117594        2.9828640064
  C         4.7263080180        6.3628766860        2.0422764620
  S        11.4548326711       -2.2309315281        0.8828642970
  N        11.9185481167       -1.7375290444       -0.5900155603
  C        12.3408334470        0.4105039399       -1.7781615624
  H        12.7497231720        2.6342932353       -2.4418814652
  C         6.1061436453        6.7462006702       19.8385489062
  N         6.0959284075        8.0986657259       19.9467763271
  O         6.4790606734        9.9651451509       18.5700929859
  H        16.9165090199        6.7212172712        6.1186097494
  H        15.8423765900        6.2751869287        7.4140436864
  C        17.4153466611        4.9911919212        7.5382256019
  H         5.2583045159        6.6976245924        1.1713697696
  H         4.2204471720        5.5478879850        1.6399539327
  C         3.7143275199        7.4940143751        2.3896734363
  C        12.5877425725       -0.3738708482       -2.9497162352
  S         5.5602592927        5.8021350816       21.2350221162
  C         5.8856083258        8.8903504078       21.1701325525
  H        17.0412040683        4.8533810762        8.5693698073
  H        17.4771094586        3.9701685004        7.1313920849
  C        18.8040688935        5.5956275036        7.6156113527
  H         3.2468380275        7.3407589438        3.3045359580
  H         2.8184085710        7.3752959487        1.7154666799
  C         4.3460502711        8.8923936358        2.4148940740
  H        12.6058144397       -1.3979656007       -2.7595387282
  C        13.1011143982        0.0421672040       -4.1803345424
  H         5.4798093852        8.2628792249       21.9338206966
  H         5.2513271446        9.7179449100       21.0499741636
  C         7.2716449847        9.4393340086       21.7938845016
  H        19.4127834424        5.0109779833        8.2807173398
  H        18.7228161015        6.6207216216        8.0200611906
  C        19.5264318788        5.6564969245        6.3035667940
  H         4.2789199448        9.2922376187        3.4983791614
  H         5.4726169018        8.9075809074        2.1377809964
  C         3.7485658123        9.8468929774        1.3896293445
  S        13.4916044461        1.6260873599       -4.6855009831
  C        13.4474303357       -0.9640129599       -5.2392220236
  H         8.1872033605        9.2347657447       21.1355212587
  H         7.4594998247        8.9055335345       22.7906860009
  H         7.1358496564       10.5057072939       21.9103193982
  H        18.8341408117        5.9426506797        5.4848422581
  H        20.2928697790        6.3904858959        6.3891830612
  H        19.8849170812        4.7006823400        6.0275213775
  H         2.6868978181       10.0430587572        1.5901768198
  H         4.2055438010       10.8305320305        1.2947462701
  H         3.8154314455        9.3259548812        0.4311736369
  C        14.0091123020        0.9700118680       -6.1560488500
  N        14.0161629678       -0.3734135221       -6.2968331573
  O        13.2195252291       -2.1478685070       -5.1632480319
  S        14.7999481263        1.8891229389       -7.4608353276
  C        14.2221524820       -1.1128124126       -7.5735786248
  H        14.5538481168       -2.1608328210       -7.4258104872
  H        14.9280775733       -0.5928212827       -8.1605535765
  C        12.9401169120       -1.1031345947       -8.3540477249
  H        13.1119633068       -1.5039154362       -9.3535434946
  H        12.4335879293       -0.1229429472       -8.3130862674
  H        12.2404979162       -1.8168300637       -7.9203704698
  H        -0.5870283886       13.8917578671       16.8740708468
  C        -1.6040816338       14.1443479103       16.4066735912
  H        -1.4265037782       14.9448356438       15.6411663177
  C        -2.4073144550       14.7342225100       17.5813244626
  C        -2.3582375400       13.0548369520       15.6701521238
  C        -2.8394140894       13.6854872904       18.7558570650
  H        -1.8779951103       15.5917438948       17.9987002421
  H        -3.3641262285       15.1142741928       17.2344724352
  H        -1.7689544809       12.5128602068       14.9061168378
  H        -2.6259802762       12.1858401541       16.2342196927
  H        -3.1969851681       13.5101380551       15.1182872051
  C        -1.7831862852       13.3960453926       19.8232769842
  H        -3.3249847397       12.7583696965       18.3659430086
  H        -3.7348111810       14.1059711309       19.2372465735
  C        -2.4707171926       13.1904282232       21.1936981584
  H        -1.2637424457       12.5012147644       19.5718908261
  H        -1.0059353746       14.1023965064       19.8377208493
  C        -1.5364753331       12.6264625841       22.2473441381
  H        -3.2789524873       12.5560373937       20.9695184121
  H        -2.8861935359       14.1051508577       21.5913545572
  C        -0.2293939782       13.4195157301       22.5168005950
  H        -1.9763979929       12.6423718782       23.2357887725
  H        -1.1799751186       11.6794528653       21.9522949503
  C         0.9019030128       12.6889242428       23.3010288791
  H         0.1838213794       13.9270529316       21.6426165748
  H        -0.3749734499       14.3580457238       23.0093852195
  C         1.3925438198       11.3669541236       22.6551383649
  C         0.4191708561       11.9820690752       24.5084106637
  C         2.1807868076       13.5756149578       23.4866720555
  C         1.0739650680       10.3159869947       23.4275242728
  C         1.9561073435       10.9651974261       21.4630379702
  C         0.5069915205       10.6606028347       24.6157297407
  C        -0.1082252892       12.5976965906       25.6308110186
  H         2.3868554672       14.0203784250       22.5350198693
  H         1.8724305343       14.4156194622       24.1460290376
  C         3.4110620578       12.8489377048       23.9855965418
  S         1.5043813559        8.7474735988       22.7793462762
  C         2.0065674540        9.5893825621       21.3316351379
  H         2.3671265383       11.7060532723       20.8398955881
  C         0.0306227911       10.0337456875       25.7822105444
  H         0.0263895715       13.6402831318       25.6753160562
  C        -0.5107150753       12.0665925127       26.7779561767
  H         3.6892770312       12.2622037816       23.1058488229
  H         3.2840916198       12.2620632636       24.8385072152
  C         4.5991284360       13.8777901574       24.3265063797
  C         2.4131676605        8.8588744435       20.0580219795
  C        -0.4670855613       10.6978487563       26.8892369438
  H         0.0945920285        8.9894486171       25.7655172549
  C        -0.8224610959       12.4705605130       28.0398114785
  H         5.2470185675       13.4500603308       25.0968338051
  H         4.1953253875       14.6375616838       24.9219164194
  C         5.4286052850       14.5853928954       23.2512224321
  C         2.4513869126        7.4795462008       19.8361010419
  C         2.6090214063        9.6659590658       18.7965732200
  C        -0.7726538392       10.0033403273       28.1445239331
  C        -1.0334514334       11.3590914104       28.8313994533
  S        -1.0333641144       13.9959241934       28.9329199701
  H         6.1587287890       15.3189597723       23.6486516276
  H         4.7528454951       15.1782523090       22.7165986015
  C         6.1971780348       13.6392934673       22.3469089821
  N         2.3693528150        6.4727325315       20.8016826609
  C         2.6909075179        6.9586461510       18.5569612640
  C         3.0048511376        9.1833845806       17.6306869245
  H         2.7205079827       10.7301785099       18.8397688777
  C         0.4188194043        9.2747554765       28.7932019121
  C        -2.0861648754        9.2094807990       28.1408983236
  C        -1.5854623249       11.7567458439       30.0813493478
  C        -1.5070421169       13.1316280473       30.3171647986
  H         7.2233115797       13.8943513083       22.2547261117
  H         6.0995509921       12.6279978528       22.7091626885
  C         5.5015371135       13.5403404287       20.9899161745
  S         2.5790865909        5.0612061281       20.1066247529
  N         2.6500525076        5.6084732185       18.5749591013
  C         2.9926707320        7.7404096470       17.4122315014
  H         3.3575983938        9.8997804675       16.9031312799
  H         0.6619288749        8.4846164922       28.1665174311
  H         0.0947671329        8.6801870479       29.5557414107
  C         1.6126277823       10.1994095423       29.1782415104
  H        -2.0688095766        8.5613877529       27.3045893098
  H        -2.3196480540        8.6886281112       29.0829524578
  C        -3.3234065169        9.9538098621       27.8167724133
  H        -1.9031728056       10.9843272223       30.6793872202
  C        -1.8471298590       13.8195977961       31.6530517273
  H         5.3280515115       14.5427838585       20.6503082665
  H         4.5815960840       13.0525877934       21.1838356155
  C         6.2707570280       12.7440526170       19.9008289946
  C         3.2383231660        7.0553066342       16.1927556533
  H         1.9013737720       10.9596071017       28.4328349482
  H         1.4200599632       10.8525951568       30.0105990736
  C         2.8480886671        9.4496228533       29.7598921301
  H        -3.1366246862       10.4145672637       26.9194424622
  H        -3.5910629888       10.6876351661       28.6030839159
  C        -4.4593226326        9.0192159151       27.5877132113
  C        -1.8339390611       15.1463976961       31.9731626578
  C        -2.1401271296       12.8814637451       32.7787041506
  H         6.2146853197       11.7721751085       20.2237444054
  H         5.7005387438       12.6620708876       19.0157916365
  C         7.6807243941       13.1904303840       19.5725751620
  H         2.9514609354        6.0326843417       16.1761431030
  C         3.5819363009        7.5757513113       14.9729965280
  H         3.0516124216        8.6787748366       28.9999417717
  H         2.7336850043        8.9252376796       30.7365417162
  C         4.0673101778       10.2978609156       29.8172713208
  H        -4.2708765502        8.1685987125       26.9770692761
  H        -4.5036953306        8.5029136790       28.4686532737
  C        -5.7940580069        9.7430873763       27.3422721000
  N        -1.4439476025       16.1924087853       31.0778595225
  C        -2.2833413302       15.6809643147       33.1511589782
  C        -2.1751059726       13.4492841504       34.0716306834
  H        -2.1342804145       11.7811924431       32.7832375215
  H         7.6583754111       14.3702267407       19.4849144332
  H         8.4652883075       12.7802037477       20.2648347291
  H         8.0273261740       12.8983578306       18.5863780950
  S         3.8472511012        9.2133684250       14.5989977330
  C         3.5287214001        6.6984858107       13.7651494732
  H         4.1350983264       11.0551201674       29.0801347735
  H         3.9991059248       10.9390520106       30.6784974228
  C         5.3846810654        9.4349721297       29.8542458176
  H        -5.7845737745       10.7725606816       27.5950389889
  H        -6.5339668535        9.2974469785       28.0085894340
  C        -6.2960316468        9.4878980521       25.9213024183
  S        -1.6773403563       17.6487104118       31.7629842312
  N        -2.2504583787       17.0732647991       33.1903599830
  C        -2.4389023674       14.8792897253       34.2898449899
  H        -2.2959130141       12.8146744038       34.9499588412
  C         3.9030579312        8.7410074943       12.9189801657
  N         3.8819732453        7.4014863336       12.6785179446
  O         3.3366849091        5.4938679537       13.8019969170
  H         6.2957485900       10.0365688733       29.9472171412
  H         5.4120939121        8.8569208082       28.8596469374
  C         5.4161765938        8.2281654064       30.8634259010
  H        -5.5343315863        9.0941160394       25.3285678408
  H        -7.1731507881        8.8507250385       26.1601087728
  C        -6.8644009219       10.7017194087       25.1897168192
  C        -2.7025955679       15.5245399958       35.4844474484
  S         4.4144285205        9.7003540295       11.5354585798
  C         3.8407268031        6.6963701101       11.3329377526
  H         5.1510883809        8.5584027146       31.8601736856
  H         4.6468804530        7.5692468744       30.5076801668
  C         6.6401182492        7.4220003813       30.7622729909
  H        -6.2024115193       10.8881780372       24.3254388432
  H        -6.8474294594       11.5788170153       25.7654567053
  C        -8.2856429936       10.3679530899       24.6676790089
  H        -2.2280362081       16.4740503093       35.5838386952
  C        -3.3539338844       15.1813339113       36.6783533335
  H         4.6454973407        7.0000079873       10.6761381346
  H         4.0102128501        5.6492188583       11.4309178605
  C         2.4779864506        6.8969033695       10.7414731068
  H         7.4476257722        7.9421325870       31.2341799811
  H         6.9479958169        7.3974615178       29.6724163466
  C         6.4051566865        5.9691713255       31.3155411645
  H        -8.5659025655       11.0037589576       23.7984721269
  H        -8.2967649171        9.3891801487       24.2048564919
  C        -9.2944857977       10.2920724507       25.7758953487
  S        -3.9892766828       13.6269949373       37.0838163372
  C        -3.4224918355       16.1899750668       37.7130209039
  H         2.0518279118        5.9870015168       10.3861375142
  H         1.8498534697        7.2840925211       11.5786553363
  H         2.5558903653        7.6133783824        9.9349821155
  H         5.7043307333        5.3928135661       30.7944620038
  H         6.0448307825        6.1006183126       32.3270976024
  H         7.3515991511        5.5105275864       31.4537940189
  H        -9.4803294184       11.2693765920       26.2460752694
  H        -9.1236634523        9.5779061157       26.6578380165
  H       -10.2605536325        9.9989980785       25.3957155682
  C        -4.3196117609       14.3586648808       38.6798854698
  N        -4.0600788370       15.6914520475       38.7559616249
  O        -2.9698590197       17.3366168537       37.6722916479
  S        -5.0377994338       13.6302379582       40.0581216754
  C        -4.1012896181       16.3832874595       40.0684507054
  H        -4.0405104230       17.4658648218       40.0175202556
  H        -4.8362735468       16.0893792069       40.6864305830
  C        -2.8847855352       15.9968490527       40.7819666437
  H        -2.5911035958       14.9909833708       40.5409018575
  H        -2.0245521516       16.6297907739       40.4545173743
  H        -3.0200395652       16.1117268017       41.9107796732
