352
i=
  H         2.3863756723        1.2896296518       12.8848664918
  C         3.1950295992        1.6413659816       12.1879013850
  H         3.7110155597        0.6980048832       11.8357292893
  C         2.5935868423        2.3129786745       10.9680359144
  C         4.0657289332        2.5856002252       13.0194358830
  C         3.6232760908        2.7119795319        9.9316561334
  H         2.0852791535        3.2105393620       11.2807759363
  H         1.8935117158        1.6570228454       10.5684729056
  H         4.7573286177        3.2486411496       12.5788495999
  H         4.6496119151        1.9911792881       13.6771315130
  H         3.3794653246        3.1413559922       13.6735891831
  C         4.7307484523        1.6700034895        9.6840863311
  H         3.1119452901        2.8406933232        8.9200496604
  H         4.1053774174        3.7012381770       10.1745683874
  C         5.4508277275        2.0898516252        8.4086013734
  H         4.1781930756        0.7341732453        9.4866390361
  H         5.5226970242        1.6150844215       10.4176530356
  C         6.6381486529        2.9358491314        8.7679907819
  H         4.7693497088        2.6739229970        7.7516912893
  H         5.7734423076        1.2280269043        7.7933602123
  C         7.9208829788        2.1173411991        9.1357113029
  H         6.8772569874        3.4504259686        7.8866346344
  H         6.2811138356        3.7392467839        9.4411265409
  C         9.2162988850        2.9597965637        9.2211077894
  H         8.2018264331        1.3773035834        8.3384543642
  H         7.9065387046        1.4647828512       10.0553139917
  C         8.9921099222        4.3144286181        9.9196689143
  C         9.5340947867        3.6592342567        7.8835616970
  C        10.4367477410        2.1417470994        9.6862796651
  C         9.1637048938        5.3726934236        9.0858413205
  C         8.6228749917        4.6838808703       11.1820430067
  C         9.5304864434        4.9826988514        7.7965474445
  C         9.9566001607        3.0207919344        6.6946979885
  H        10.1560240601        1.6015874370       10.5448222194
  H        10.7046775643        1.3997050225        8.9608253752
  C        11.6281845095        3.0391918021        9.8615152960
  S         8.8992600225        6.8582448425        9.8532309329
  C         8.4078939959        6.0028114493       11.3213771354
  H         8.3671832334        3.9198811165       11.8639246060
  C         9.7690154344        5.5634844479        6.5930474963
  H         9.9102860083        1.9498460018        6.6371443790
  C        10.2619669267        3.6353187821        5.5250384347
  H        11.2540024991        4.0190764347       10.3127433277
  H        12.0744469128        3.3191096401        8.8797180804
  C        12.6985904822        2.5023823206       10.7815158721
  C         7.9298415222        6.6949659377       12.5433982614
  C        10.1442012214        4.9804591260        5.3990890434
  H         9.7018909195        6.6672253062        6.5856224500
  C        10.6760744702        3.2421010006        4.3005218039
  H        13.6785610755        3.0340453666       10.5567026300
  H        12.9649830571        1.5124596526       10.6478820406
  C        12.3951609006        2.6103220002       12.2346239544
  C         7.7831096043        8.0913888876       12.7354441652
  C         7.4786043459        5.8697169224       13.6860156927
  C        10.5550378219        5.6737887044        4.1019026132
  C        10.9509223044        4.3367605960        3.4340845726
  S        10.8249404873        1.7061366460        3.5455857042
  H        12.0830463221        3.6025595293       12.4886069349
  H        11.6486725141        1.8890134949       12.6050967942
  C        13.7155957398        2.4369579493       13.1429953986
  N         8.0907989146        9.0943701548       11.7124293113
  C         7.4679962732        8.6566108753       14.0038539264
  C         7.2288737698        6.3801578311       14.9704150002
  H         7.3617797180        4.8133652785       13.5478929413
  C        11.8543224206        6.4947319176        4.3160994080
  C         9.3587718469        6.4215965066        3.4720802286
  C        11.4038441345        3.8986479016        2.1996224611
  C        11.3270335442        2.5416542242        2.0630285520
  H        14.2855261211        3.4303722890       13.1569958073
  H        14.3509484729        1.7642203910       12.5217097952
  C        13.3453473015        1.7961441111       14.4884936646
  S         7.8737806903       10.5518289655       12.4113932299
  N         7.5056767092       10.0718389428       13.9537050189
  C         7.1730868284        7.8347674934       15.1523506254
  H         7.0901134011        5.7391994974       15.7810462908
  H        11.7269951094        7.3232076998        5.1519009308
  H        12.2045921816        6.9909789046        3.3839893584
  C        13.0390109767        5.6997554610        4.7771227562
  H         9.0643405614        7.2381811874        4.0994886624
  H         9.7242873980        6.8506832625        2.5092442146
  C         8.1274873796        5.5815966293        3.2060425332
  H        11.7291557130        4.5843853698        1.3410582607
  C        11.7121990351        1.7066690263        0.8185845851
  H        12.5063712242        1.1173919842       14.4717294817
  H        14.1853427299        1.1457395548       14.7241509174
  C        13.1509514921        2.7758483346       15.6950451124
  C         6.9081496812        8.4672982075       16.4299369220
  H        12.7745628479        4.9270230630        5.5203829686
  H        13.3545907309        5.0398405644        3.9902101544
  C        14.2503186426        6.4936453349        5.2831368999
  H         7.3328150638        5.7501863614        3.9434236856
  H         8.3741078940        4.4671461995        3.2993318530
  C         7.4879217661        5.9060207652        1.8297763944
  C        11.6675248240        0.3162985313        0.6766567085
  C        11.9933985619        2.4883805802       -0.4579393275
  H        12.3568720521        3.4814983699       15.4226653581
  H        14.1046469568        3.3085274998       16.0698074184
  C        12.4943953401        2.1729505211       16.9335463119
  H         7.0337672912        9.5505035763       16.4356835703
  C         6.5391421312        7.9350079355       17.6342414647
  H        14.0189995149        7.0641444062        6.1622956784
  H        14.5381950824        7.2086937426        4.5038149701
  C        15.3600802941        5.5737687942        5.6196924046
  H         7.6902115566        6.9656857211        1.4398928966
  H         7.9674054543        5.1795155319        1.1401891927
  C         6.0199385797        5.5223374844        1.6338759795
  N        11.4726973485       -0.6044812798        1.7349158130
  C        12.1058705807       -0.2420505420       -0.4999883949
  C        12.2664090012        1.8414720285       -1.6723545757
  H        11.9451694708        3.5893270640       -0.4109713210
  H        12.9052087734        1.2493356932       17.3382457423
  H        11.4272005292        2.0128830018       16.7737918603
  H        12.5433525583        2.9091442827       17.7443642652
  S         6.2281705841        6.3254549412       18.1015435927
  C         6.5097491975        8.9592300965       18.7052150531
  H        14.9855152280        4.8277977305        6.3570429507
  H        15.7136225132        5.1080486949        4.7294647220
  C        16.5921958168        6.1730416973        6.2348894144
  H         5.9245505215        4.6099057703        2.3364112073
  H         5.9038075924        5.1900124878        0.6091859284
  C         4.9893987702        6.6071563294        1.9801652117
  S        11.7322612480       -2.0963131446        1.0960261866
  N        12.2330005629       -1.6214025240       -0.4094931279
  C        12.3378030572        0.3996603219       -1.7175905057
  H        12.3034034969        2.5219546469       -2.5083807066
  C         6.0991054302        7.0078755957       19.7710717269
  N         6.1907642047        8.3578587339       19.8396300304
  O         6.7003671328       10.2075484166       18.6682624628
  H        17.3898746818        6.2303209223        5.4445043433
  H        16.4386906279        7.1493669707        6.6852416932
  C        17.0367444119        5.1449523887        7.3225121407
  H         3.9519688281        6.1515389594        2.0673389766
  H         5.1289366411        7.0852863989        2.9569247727
  C         5.1197082202        7.8211732116        1.1203285479
  C        12.6475094785       -0.3303078831       -2.8742597648
  S         5.2607094042        6.1202122279       21.0846482695
  C         6.2111394591        9.1456402742       21.0803957611
  H        16.2859654106        5.2992742514        8.0535796617
  H        16.9774904682        4.1505496014        6.8785795789
  C        18.4214005481        5.5231489113        7.8764904932
  H         5.4653925901        7.5772478371        0.1285355061
  H         5.9065317400        8.4335012860        1.6096693212
  C         3.8407503445        8.5779623444        0.9704547172
  H        12.5174954303       -1.3806138025       -2.7716781145
  C        13.1860239616       -0.0410225175       -4.1149242324
  H         5.2581872884        8.8438703040       21.6783064690
  H         6.1619667446       10.2214981368       20.9038431437
  C         7.5515325055        8.8521440749       21.7873744125
  H        18.6969668047        4.9554820422        8.8121096731
  H        18.5740293560        6.6271645981        8.2063030936
  C        19.5603317551        5.1810943359        6.8237675144
  H         3.4558809729        8.7357416391       -0.1074528282
  H         3.0433487353        8.0153505063        1.4561417631
  C         4.0267327334        9.9818112609        1.5509489537
  S        13.5999172278        1.5599448999       -4.6890956204
  C        13.2952468880       -1.1044511029       -5.1281783372
  H         7.7076271523        9.6045199998       22.5953506133
  H         8.3415818484        8.8528213207       21.0494814346
  H         7.5634414530        7.9322468704       22.2970177779
  H        19.7790818932        5.9305657292        5.9462431521
  H        20.5166340989        5.1453304534        7.3539891879
  H        19.3756271507        4.1280793549        6.4043943012
  H         4.4859366093       10.6267025176        0.7687042938
  H         3.1264096863       10.4833111255        1.7731093388
  H         4.6450069665       10.0081414295        2.4470954548
  C        14.0182673096        0.6509749724       -6.2090293329
  N        13.8630087645       -0.6787443575       -6.2170074399
  O        12.9825023213       -2.1935477012       -4.8621522610
  S        14.4837393220        1.4350740942       -7.7254364368
  C        13.9927836452       -1.4486907077       -7.4030441190
  H        14.2527296342       -2.5058530578       -7.1355493368
  H        14.7611383217       -1.0141390362       -7.9595115252
  C        12.6067825689       -1.5254956364       -8.1596689489
  H        11.7537602580       -1.6185532269       -7.4056779199
  H        12.7299499050       -2.3475131142       -8.7736161482
  H        12.4993873769       -0.6342059315       -8.7763955827
  H        -1.7705352776       14.5166688537       15.5543537647
  C        -2.3677057830       13.8154408762       16.1129447184
  H        -3.3242126363       14.2667337007       16.5256592065
  C        -1.4676001121       13.1855180434       17.1486425886
  C        -2.8264039524       12.9041169499       14.9228399152
  C        -2.1997566227       13.3935085390       18.5269822308
  H        -1.4052705112       12.2022657363       16.9118684562
  H        -0.4727614437       13.5243162600       17.0673999741
  H        -2.1315190460       12.2029861883       14.5091515474
  H        -3.6324714114       12.2476996544       15.3115419568
  H        -3.2300661203       13.4614345938       14.0732977049
  C        -1.6787828755       12.3544343292       19.6036575601
  H        -3.2439238204       13.1528634381       18.4085965898
  H        -2.2150035345       14.3841716729       18.8491464602
  C        -2.2739109407       12.7164036861       20.9741004954
  H        -2.0022355659       11.3268302907       19.3159380435
  H        -0.5883897493       12.3366502038       19.6763362043
  C        -1.2924751754       12.3884560618       22.1354000588
  H        -3.1625703684       12.1338915557       21.0924349741
  H        -2.5643253348       13.7921049016       21.0509600167
  C        -0.0896097243       13.3065395079       22.2929030337
  H        -1.7808482534       12.3238639763       23.1152522608
  H        -1.0181613318       11.4346392077       21.8431562484
  C         1.1480745172       12.7708234855       23.0503776813
  H         0.2782246246       13.7483125373       21.3688180571
  H        -0.4508348110       14.0836829822       22.9356495649
  C         1.6333032379       11.4929703822       22.3894335420
  C         0.7886935066       12.0437843324       24.3531610386
  C         2.2746570379       13.8011578982       23.1420716206
  C         1.3430875651       10.3106207463       23.1758468438
  C         2.1255317253       11.1712226878       21.1321144827
  C         0.9295887971       10.6988976421       24.4374204142
  C         0.2900149342       12.6746669269       25.4206798855
  H         2.4167052716       14.1969278778       22.1587485949
  H         1.9143289955       14.5892152279       23.6994580738
  C         3.6340632252       13.2194265527       23.6065736042
  S         1.7506953455        8.8860428112       22.3558026771
  C         2.2155370983        9.8265788008       20.9613524164
  H         2.4138555567       11.9529888045       20.4804107922
  C         0.5547424527       10.1110161013       25.6461199669
  H         0.4399741119       13.7599648229       25.3733969274
  C        -0.0596714225       12.1051122485       26.6014138089
  H         4.1202486299       12.6043519632       22.8164471783
  H         3.4546435724       12.5901285666       24.4479044986
  C         4.6200559124       14.2463477762       24.1893845420
  C         2.6295780615        9.2485513671       19.6001189526
  C         0.1203058103       10.8077438918       26.7799221142
  H         0.6491132345        9.0877581280       25.7290028775
  C        -0.4175881285       12.5544956292       27.8473361123
  H         5.3934340251       13.7345059425       24.8087700604
  H         4.0194604225       14.9770803516       24.7772038911
  C         5.3340078594       15.0124008519       23.0203115225
  C         2.5636883145        7.9133118160       19.1957122955
  C         3.2164686941       10.1564758487       18.5292566201
  C        -0.3021236541       10.2136257623       28.1385594432
  C        -0.5550084668       11.5237526511       28.7520833622
  S        -0.5761135652       14.0831130084       28.5321544040
  H         5.8053586997       15.9243317222       23.4815226035
  H         4.5451956840       15.4424585440       22.3673001027
  C         6.3836747777       14.1816060817       22.2885841660
  N         2.2313265105        6.9578628887       20.1003057930
  C         2.9484803368        7.3796096011       18.0080030886
  C         3.5257837601        9.6763705543       17.2373839164
  H         3.4784360167       11.1672276070       18.7602109660
  C         0.8815381688        9.4191399506       28.7718719722
  C        -1.5432538283        9.3675998510       27.8924201724
  C        -0.9521207705       11.9586838751       29.9887037372
  C        -1.0137278821       13.3277866592       29.9698809066
  H         7.3752856972       14.6994616475       22.3444248981
  H         6.6680341042       13.2077582813       22.8168581424
  C         5.9892677932       13.7576536259       20.9169301985
  S         2.3551981998        5.4489250715       19.3745482893
  N         2.8828571977        5.9790524367       17.9236628387
  C         3.4120686746        8.1525320801       16.9788272300
  H         3.7303876184       10.3834612466       16.4892380179
  H         1.1891615193        8.6679979240       27.9782157787
  H         0.5249245873        8.7942736459       29.6830289792
  C         2.1173072653       10.3338097169       29.2016342075
  H        -1.2853262211        8.6350471909       27.1304532846
  H        -1.7399301837        8.9647297550       28.9619456010
  C        -2.8200315026       10.2680480280       27.4856210088
  H        -1.2677060601       11.2508059626       30.7792640574
  C        -1.3117339744       14.0973774002       31.2207121197
  H         5.4482486783       14.6122342918       20.4208957072
  H         5.3925631098       12.8853627152       21.0719905446
  C         7.2638525421       13.3903683581       20.0283559536
  C         3.7549995303        7.5769823593       15.7370235419
  H         2.2707406211       11.1340481497       28.4228408184
  H         1.9607290082       10.7529355996       30.1821119125
  C         3.4177531534        9.5774564593       29.2484318432
  H        -2.5725233737       10.9570600403       26.6437232925
  H        -3.0091644473       10.9607194341       28.2597523033
  C        -3.9372964624        9.3799450114       27.0540836267
  C        -1.4680205374       15.4917514193       31.3438826138
  C        -1.3202482946       13.3046463444       32.4765930643
  H         8.1404077024       14.0680643594       20.3137171653
  H         7.5557812000       12.3789412217       20.1610214049
  C         6.9040424822       13.6123955592       18.6092875994
  H         4.0533345649        6.4874797728       15.8401401099
  C         3.9487300189        8.0193936262       14.4607903297
  H         3.4899980740        8.9278611449       28.4109525867
  H         3.3471545658        8.8254478984       29.9960794294
  C         4.6530931022       10.4281535275       29.3505075266
  H        -3.5210810652        9.0963780497       26.0785767345
  H        -3.9705610615        8.5509165721       27.8300445062
  C        -5.2559499558       10.2066265904       26.9424569865
  N        -1.2184230892       16.4384573745       30.3671586798
  C        -1.7413651457       16.1247389752       32.5749923691
  C        -1.5837560588       13.9593212558       33.6920680555
  H        -1.0997572767       12.2726574775       32.5048597997
  H         6.4722485083       14.6158732113       18.3278772927
  H         7.7906442549       13.5319630972       18.0117639671
  H         6.1654516080       12.8853316248       18.2579008544
  S         3.9918140524        9.6635929521       13.9421577859
  C         4.1692502949        7.0143834915       13.4308818781
  H         4.6926664127       11.1112582026       28.4465764532
  H         4.4270610806       11.2301011188       30.0931553441
  C         5.9495952506        9.6917066142       29.5269162700
  H        -5.0750083411       11.1609325944       26.3653445162
  H        -5.5670085179       10.5140126946       27.9453968221
  C        -6.4267184525        9.4496082098       26.2630355869
  S        -1.4591329428       17.9012474140       31.0085748848
  N        -1.8149294490       17.5087858835       32.5539497165
  C        -1.9126790208       15.4068588347       33.7353521939
  H        -1.6307278576       13.3180114005       34.5946567563
  C         4.4625888261        8.9498590687       12.3929312372
  N         4.4551877791        7.5571539151       12.2999025010
  O         4.2382038359        5.8241698174       13.6518505402
  H         6.7618580638       10.3521703466       29.3692038495
  H         6.0370085651        8.9506087406       28.7320952656
  C         5.9942408083        9.0338871372       30.9464233682
  H        -5.9569850675        8.8833891505       25.4575140461
  H        -6.8109069415        8.7266876560       27.0485304270
  C        -7.4660433329       10.3997182591       25.7072872725
  C        -2.1779425492       16.0844343328       34.9783275694
  S         4.9700476568        9.7453678464       10.8578970694
  C         4.3847984290        6.8380019294       10.9964176402
  H         6.6287105307        9.6777317335       31.5532131980
  H         5.0126895352        8.9485030861       31.3267588177
  C         6.6779313480        7.6562744238       30.8646552390
  H        -6.9988420533       10.7109853971       24.7679033241
  H        -7.6819938702       11.3139916314       26.3407719704
  C        -8.7350271621        9.6858228944       25.4814896815
  H        -1.9724562904       17.1254592026       35.0476389210
  C        -2.7701347780       15.6977579632       36.1660870511
  H         5.0476243341        7.2867100221       10.2132042644
  H         4.8314898376        5.8475752961       11.1735160925
  C         2.9735097602        6.6273748897       10.3805851574
  H         7.5659626198        7.7790312226       30.2426006660
  H         6.0492950159        6.9763591537       30.2834069581
  C         7.0052115383        6.8607825107       32.1175807962
  H        -9.1638800260       10.1637923118       24.6743078068
  H        -8.6209470859        8.5497630103       25.3387336707
  C        -9.6820615075        9.9096930677       26.6677703797
  S        -3.1019804999       14.0792042775       36.6459468110
  C        -3.0027856544       16.7576012641       37.1583781116
  H         2.7435829705        7.4168014664        9.6428780650
  H         2.9596163772        5.7666453947        9.7979496395
  H         2.2411791539        6.6514446209       11.1815964413
  H         7.9634276689        6.3660874382       32.0264178076
  H         6.2190898264        6.1139130680       32.3546211605
  H         7.0514448735        7.4765089863       33.0727519390
  H       -10.3818290721        9.0486990093       26.5913924200
  H       -10.3467162694       10.7547355275       26.6348332483
  H        -9.1475473397        9.9792591578       27.5923801053
  C        -3.5865920049       14.7554641036       38.2195266206
  N        -3.5661021872       16.1423865262       38.2293357971
  O        -2.7683861610       17.9962804349       36.9987231167
  S        -4.6117107274       13.8679828385       39.3884600859
  C        -3.9390908282       16.9298391318       39.4071364161
  H        -4.0888555017       17.9866615427       39.1307790023
  H        -4.8857939287       16.5936732891       39.6859948624
  C        -2.8982441451       16.6675585048       40.4168859543
  H        -2.4646675095       17.6237358326       40.5901274021
  H        -3.1582103863       16.0930359660       41.2486092534
  H        -2.0405937477       16.1325693132       40.0206049770
