352
i=
  H         3.5879465995        3.6179492416       12.2652277716
  C         2.7042137819        3.0463254010       12.3373337313
  H         1.9558887993        3.6921795380       12.6832704301
  C         2.1961825138        2.5801851103       10.9503538045
  C         2.9619407604        1.9444112534       13.3168984938
  C         3.2700685375        2.7130126420        9.8883110298
  H         1.3730390670        3.1973134887       10.7216208288
  H         1.8793891169        1.5473813292       10.9544459678
  H         1.9469576515        1.7457648030       13.8386423717
  H         3.7429844931        2.2350278200       13.9836272469
  H         3.3827522983        1.1322382885       12.7478653471
  C         4.3245059311        1.6273519004        9.9153261086
  H         2.7993123657        2.7886223831        8.8719113874
  H         3.7126357772        3.7504935524        9.9247189538
  C         5.1352715892        1.6897927201        8.6329127900
  H         3.8497028423        0.6239670538       10.0790773860
  H         5.0343835200        1.7979511350       10.7306407029
  C         6.4261632263        2.5349976775        8.7436373228
  H         4.4948554514        2.1160199844        7.8311292347
  H         5.5310529231        0.7350541068        8.2698408610
  C         7.6414836593        1.8378203712        9.2668263752
  H         6.5969951312        3.0789168190        7.8131978465
  H         6.3151311674        3.4369899824        9.3864708177
  C         8.8847508057        2.7257812774        9.4263627243
  H         7.7976792507        1.0210367114        8.5559174289
  H         7.3137207073        1.3689339889       10.1671152427
  C         8.5348572604        4.1090431889       10.0303227396
  C         9.2420710487        3.4598554216        8.1311348329
  C        10.0529529953        1.9690535555       10.1687882767
  C         8.8436953019        5.2333904458        9.2996871129
  C         8.0538344747        4.5307549120       11.2809446094
  C         9.2544049211        4.8236716087        8.0717402640
  C         9.6544362880        2.8840195130        6.9143845871
  H         9.6086810668        1.7282516971       11.1611166458
  H        10.2784926229        1.0787927077        9.5495392280
  C        11.3237434997        2.7221552759       10.4448580209
  S         8.4816826677        6.7346026634        9.9607228410
  C         7.8686935735        5.9100405415       11.3700894953
  H         7.8693635509        3.7786970573       11.9928632583
  C         9.5312254172        5.4798882671        6.9496476334
  H         9.6241172323        1.8304841805        6.8715462177
  C         9.9442461962        3.5298752416        5.7261738545
  H        11.0682269395        3.6912162790       10.7632463556
  H        11.9391546463        2.7840560721        9.6071347628
  C        12.1761093784        2.0028609365       11.5557824775
  C         7.5066744404        6.5861870057       12.6491784687
  C         9.8683052190        4.8488599559        5.7144019285
  H         9.3477921331        6.5551977189        6.8283708706
  C        10.3724726769        3.1982815681        4.4549486444
  H        13.2203613154        2.4131375495       11.4985332012
  H        12.2936974032        0.9188270730       11.4979851241
  C        11.7385404155        2.1602772458       12.9295449234
  C         7.4045080337        7.9473180325       12.8249425076
  C         6.8912543615        5.7426366302       13.7804163141
  C        10.1568457508        5.6262586490        4.4470526921
  C        10.5857476931        4.3362178543        3.7170901869
  S        10.6235020836        1.7351313794        3.6606728075
  H        11.4985828840        3.2217500065       13.1273824151
  H        10.6827558097        1.8092625666       13.0005239703
  C        12.5873802705        1.5249056910       14.0831675288
  N         7.7411921800        8.9190245169       11.9138567395
  C         7.0075340630        8.4812659790       14.0689111816
  C         6.3830574928        6.3082858165       14.9086928936
  H         6.6775008412        4.7654689877       13.5348993377
  C        11.3400491749        6.6889182295        4.6699034976
  C         8.8166187618        6.1986584514        3.9890102796
  C        10.9982634735        3.9599670072        2.4274022947
  C        11.1022131139        2.6317544801        2.2499870734
  H        13.5764288331        1.8053281574       13.8773967005
  H        12.5296842702        0.4137836079       14.0714189840
  C        12.1859239316        2.1244609188       15.4722701767
  S         7.6245690369       10.3654187611       12.6267398711
  N         7.1385554896        9.8644666423       14.0774851285
  C         6.7278863222        7.7217371214       15.2217578217
  H         5.9324459245        5.7386591176       15.5930199603
  H        10.9878526271        7.4731743653        5.2464554793
  H        11.6812087345        7.1489513605        3.7756382938
  C        12.5038292138        5.9364161776        5.2945225615
  H         8.1946441678        6.7801202478        4.6473913915
  H         8.9740644374        6.8360684453        3.1671100794
  C         7.8850873169        5.1588734919        3.3648959784
  H        11.1376933245        4.7671138841        1.6933882854
  C        11.5848605594        1.9267666520        0.9988115320
  H        12.3543890020        3.1779479974       15.5497501825
  H        11.1510733138        2.0145534698       15.7233730942
  C        13.0517500878        1.4518582804       16.5042161822
  C         6.4577721274        8.3209748780       16.4989708905
  H        12.2276895719        5.5294574555        6.2451266904
  H        12.7120168064        5.0469483239        4.6993817058
  C        13.7516916710        6.8283177311        5.5183002668
  H         7.7095886806        4.3487849508        4.0335067350
  H         8.3973073833        4.7962429982        2.4950592268
  C         6.4522032709        5.6920674761        2.9363274529
  C        11.8087375861        0.5779860249        0.8519080321
  C        11.6827992090        2.7054886479       -0.2285738289
  H        14.1142592397        1.3717437745       16.2091363085
  H        12.6965759590        0.4479238552       16.7673905289
  C        13.0801375864        2.2670742452       17.8670068571
  H         6.3308058948        9.3358215622       16.4710511264
  C         6.2350054465        7.7803606783       17.7170803885
  H        13.5279644971        7.5428443921        6.2629243459
  H        14.0876120569        7.2750391488        4.5575726685
  C        14.8222691343        5.9096661202        6.0674913945
  H         5.8389230976        4.8612384538        3.1801352564
  H         6.1868111635        6.4675079043        3.5689736392
  C         6.3089219326        6.1432188887        1.4704707425
  N        11.6102975712       -0.3935721398        1.8482429131
  C        12.1222543115       -0.0098402384       -0.3893081502
  C        12.1100610436        2.2244448379       -1.4908494793
  H        11.4646382163        3.7766651695       -0.1124558463
  H        14.1521400942        2.3359976171       18.1167127387
  H        12.5438753118        1.8396691737       18.6788697994
  H        12.7665195959        3.2773307948       17.6797896937
  S         6.0081686324        6.1618452102       18.1454858628
  C         6.1931348481        8.7454733065       18.8580749660
  H        14.3918652038        5.3766135097        6.9391006883
  H        14.8811066497        5.0685170363        5.3201714567
  C        16.2398339557        6.4259369483        6.5080567026
  H         6.5890876115        5.2953307457        0.8322074222
  H         6.9667520921        7.0312743116        1.2948765208
  C         4.9063128519        6.7010975479        1.0703051436
  S        11.4093795019       -1.8685281292        1.0822699098
  N        12.0523168926       -1.4484526087       -0.3314967529
  C        12.3078638245        0.7634171294       -1.6097243037
  H        12.1825124125        2.8846292798       -2.3007689543
  C         5.7975380096        6.7229564408       19.8012317218
  N         5.9413642870        8.0755809880       19.9984992162
  O         6.2171789779        9.9644973129       18.7641782710
  H        16.6581568478        6.9091434313        5.6472115450
  H        16.2611131801        7.1625965676        7.3531066206
  C        17.1613774965        5.3519286170        7.0553402288
  H         4.8973555216        7.2071784913        0.0984267445
  H         4.1775088144        5.8739101534        0.9944319928
  C         4.4941131078        7.8654943816        2.0194218535
  C        12.6897525255        0.0559864541       -2.7866927143
  S         5.4300857637        5.5924940791       21.0421368666
  C         5.9912993739        8.6419436484       21.3631885854
  H        16.6068518144        4.8861666003        7.8352297736
  H        17.3308745248        4.6502578514        6.2643928780
  C        18.5035008826        5.9057410473        7.5579522765
  H         5.4191384591        8.2815030713        2.4822813819
  H         4.0598863750        7.4415786906        2.8902365398
  C         3.7382927907        8.9441838095        1.2372784767
  H        12.6645382665       -1.0073885567       -2.7058968619
  C        13.2498388266        0.4106504878       -3.9918137897
  H         5.2363681310        8.1939290419       21.9664206008
  H         5.7818120054        9.7290968132       21.4966272105
  C         7.3186351921        8.4112987836       22.0318520418
  H        18.8507637705        5.3893628902        8.4509251215
  H        18.3167056370        6.9378187964        7.8998217258
  C        19.6076393056        5.9362965528        6.4528080628
  H         4.2089118460        9.2672944727        0.3402066168
  H         2.7354442510        8.7040976832        1.0213755312
  C         3.4750010563       10.2090795806        1.9768783972
  S        13.9321520163        1.9272894440       -4.3966615238
  C        13.4682993495       -0.6811886612       -4.9368645496
  H         7.3939846937        8.8210693601       23.0142016235
  H         8.1447807070        8.8012363340       21.4412232403
  H         7.6506152287        7.3364654065       22.0990923389
  H        19.4717091318        6.7579656487        5.7394711324
  H        20.6090180416        5.8850713385        6.8485468180
  H        19.5011118866        5.0258323360        5.7938630058
  H         2.4477478991       10.4365045000        2.2301641444
  H         3.9537174067       10.0196335395        2.9528068632
  H         3.9522463852       11.0356946099        1.5688684496
  C        14.4648547154        1.1612705394       -5.9120147876
  N        14.1780213431       -0.1476208018       -6.0153100164
  O        13.1004534977       -1.8800936531       -4.7963745860
  S        15.1609281751        1.8509565702       -7.4071108903
  C        14.0883763389       -1.0218043304       -7.2163297109
  H        14.2737879968       -2.0421536720       -6.8606290914
  H        14.8980788840       -0.7078877955       -7.8502975201
  C        12.7527060785       -0.9078840383       -7.9775609202
  H        12.1703021627       -0.0680290048       -7.5925314396
  H        12.1251860887       -1.8183890915       -7.7383148687
  H        12.9502267952       -0.8421223002       -9.0577977174
  H        -2.2649542081       12.2945519349       16.7790874555
  C        -2.7060377999       13.1493941392       16.4034613485
  H        -1.9120285568       13.6764865032       15.8308377840
  C        -3.1112804567       14.0263195181       17.5919347626
  C        -3.9474436707       12.7448803593       15.5492743901
  C        -3.4315734315       13.1883724668       18.8529385163
  H        -2.2989998789       14.7192110678       17.6698456807
  H        -3.9778164136       14.5935953873       17.2856257550
  H        -4.6078757983       12.0883023494       16.1458580709
  H        -4.4432441254       13.6217796895       15.2381558491
  H        -3.5738611070       12.2691737226       14.7015978765
  C        -2.2247300662       12.8843686236       19.8845762467
  H        -3.7257600889       12.2420782979       18.5299460952
  H        -4.2360413896       13.6320838400       19.4158621162
  C        -2.6851378934       12.8040197248       21.3519202517
  H        -1.8391598537       11.9113071419       19.6366204035
  H        -1.4586108887       13.6559881442       19.8480912206
  C        -1.5322452318       12.2142490818       22.3181924892
  H        -3.6109309545       12.2777910035       21.5558420160
  H        -2.8598091394       13.8246145054       21.6524755877
  C        -0.4399531189       13.1946128900       22.6578041508
  H        -2.0363570328       11.8803150658       23.2083026975
  H        -1.0936926752       11.3629981922       21.8686859686
  C         0.8966469205       12.7048668902       23.3592977547
  H        -0.0979646359       13.6354637135       21.6739753443
  H        -0.8685503632       13.9626091539       23.2372842720
  C         1.3097849654       11.3760066079       22.6787905330
  C         0.4439808091       11.9226318149       24.5914104397
  C         2.0144110386       13.6939160780       23.3606641036
  C         1.1270233497       10.2125033631       23.4344418708
  C         1.7759488216       11.0760299569       21.3799485471
  C         0.6215927944       10.6104191161       24.6856236856
  C         0.0124268906       12.5035639063       25.8037947307
  H         2.1377479222       14.1763311136       22.3777815835
  H         1.7950130675       14.4158440747       24.1745655035
  C         3.4289341135       13.1203543732       23.6442664908
  S         1.6106493153        8.7542400076       22.6929542003
  C         1.9162630613        9.6953930345       21.2548028127
  H         1.7712474626       11.9266675275       20.6505168464
  C         0.2880898988        9.9166663361       25.8487701014
  H        -0.1591358313       13.5801811156       25.8514085447
  C        -0.3648703899       11.8661285685       26.8961304149
  H         3.6631440668       12.4585969077       22.8162168636
  H         3.3911783060       12.4522230507       24.5961024902
  C         4.5694056844       14.1404027505       23.8117512762
  C         2.2655564637        9.0602528831       19.9581029450
  C        -0.2129833094       10.5177363858       27.0270668513
  H         0.3371253647        8.8216308138       25.9191999290
  C        -0.8678007684       12.2801353077       28.1512740966
  H         5.3157965597       13.7983236220       24.5615303183
  H         4.1041749101       14.9893227096       24.2834224261
  C         5.3423836472       14.5459878416       22.5066912665
  C         2.2802410122        7.6993801175       19.7129584317
  C         2.6415025880        9.9136621351       18.7946661347
  C        -0.6511292648        9.8134063110       28.3471976840
  C        -0.9895030755       11.1686870026       28.9832154307
  S        -1.2904477446       13.7309805728       28.8389670866
  H         5.9020686496       15.4007538800       22.8933006011
  H         4.6876825369       15.0521425857       21.7759776260
  C         6.3285246571       13.5753465149       21.8735579209
  N         1.7237172446        6.6601922769       20.6348628901
  C         2.5403950087        7.2203308776       18.4090638670
  C         3.0003167812        9.4642075262       17.5443837435
  H         2.8955507636       10.9781085064       18.9794190713
  C         0.5079722787        9.0291714224       28.9922685132
  C        -2.0090897099        9.0091378498       28.1864527055
  C        -1.3834086967       11.6214606554       30.2309382818
  C        -1.4979385835       12.9604415307       30.3058079011
  H         7.1462133298       14.1736523096       21.5062507175
  H         6.6054277023       12.8467906790       22.6762301790
  C         5.8196783975       12.9152055684       20.5990543291
  S         1.8815897056        5.2385327287       19.8021814846
  N         2.4211697901        5.8202097623       18.3358786525
  C         2.8929240042        8.0287430176       17.2767044976
  H         3.3440017925       10.2341228313       16.8119380023
  H         0.9463010133        8.4060521244       28.2003573845
  H         0.0404782388        8.4059238521       29.7092970478
  C         1.6216488881        9.8024230104       29.6333035552
  H        -1.8523250793        8.1162411798       27.4775617493
  H        -2.2361373855        8.5568307983       29.1671404518
  C        -3.0581510465        9.9140180523       27.4617173338
  H        -1.4930426665       10.9160821007       31.0161779138
  C        -1.9422471894       13.7328404193       31.5395486648
  H         4.8277135819       13.3131257110       20.5699107904
  H         6.0352069884       11.8144799697       20.6300906435
  C         6.4391321898       13.4361127672       19.3604085196
  C         3.0908307131        7.4560567179       15.9868499335
  H         1.9371374622       10.6453893965       28.9764085552
  H         1.3244557638       10.3421780923       30.5120884168
  C         2.7751580354        8.8435299387       30.0787782344
  H        -2.7358533205       10.4808201190       26.6363144784
  H        -3.4566864156       10.6807512044       28.1496347655
  C        -4.2473674464        9.0044440376       27.1515243655
  C        -1.9676372481       15.1220910075       31.6924244317
  C        -2.2055667991       12.9207328221       32.7336058062
  H         6.5479629355       14.5569476976       19.2280883557
  H         7.4266656527       13.0489892719       19.3811056501
  C         5.6993440790       13.0178158239       18.1277089776
  H         3.3547878343        6.3953714068       16.1482344361
  C         3.3430020888        7.9770870344       14.7423820388
  H         3.0796213614        8.2985805145       29.1781885430
  H         2.3937391070        8.1007028202       30.7506536767
  C         3.9631256541        9.5226080996       30.6515102536
  H        -3.9761490875        8.3545537303       26.2900990663
  H        -4.3870624055        8.3089539819       28.0419628813
  C        -5.5789325911        9.6788506727       26.9080090424
  N        -1.8194650811       16.1149367730       30.6737067727
  C        -2.2160160408       15.7298235629       32.9035318111
  C        -2.4610322772       13.5644722520       33.9363674679
  H        -2.3585563313       11.8457955963       32.6250408041
  H         5.9548706869       12.1431490301       17.6371763866
  H         4.6207926023       13.0860233705       18.4151179232
  H         5.7267543853       13.8305258284       17.4384915900
  S         3.5274802112        9.5800350993       14.4257990320
  C         3.5307179208        7.0741262291       13.5651969463
  H         4.1498078241       10.3274492808       30.0026433526
  H         3.7880845789       10.0966544462       31.5737930375
  C         5.2566347589        8.7702295991       30.6801587404
  H        -5.7281594235       10.5782315773       27.5135471638
  H        -6.4842547727        9.0768421417       27.0453582174
  C        -5.6938914524       10.1738284835       25.4709240679
  S        -1.7692371367       17.5853655491       31.3381122286
  N        -2.1669739143       17.1543495416       32.8847672223
  C        -2.4850698726       14.9952248175       34.0422605231
  H        -2.8228550969       13.0706469328       34.8285861571
  C         3.7377321518        9.0730900726       12.7329569473
  N         3.9319561447        7.7246075916       12.5451527542
  O         3.5018568307        5.8544967090       13.7815628170
  H         5.9305612853        9.3870482816       31.2623061223
  H         5.7119383930        8.7141335610       29.6774180065
  C         5.2207617526        7.4782503670       31.4312529580
  H        -4.7906855312       10.6837892193       25.1112543028
  H        -5.7837067354        9.3077778909       24.8030481896
  C        -6.9526333076       11.0938797282       25.2246414553
  C        -2.8644436727       15.7154422505       35.2199628874
  S         4.4919355757       10.1434457995       11.5337319129
  C         4.1075096548        7.0902276354       11.2548052976
  H         5.5975051427        7.6210141760       32.4268852441
  H         4.2556010986        7.0512160381       31.5891462868
  C         6.1407070158        6.4340402043       30.8905071686
  H        -6.9437463073       11.3669057328       24.1500076189
  H        -7.0353317430       11.9938949274       25.8242044340
  C        -8.2170806026       10.3094606029       25.1923048091
  H        -2.4978728197       16.7157404129       35.2259571010
  C        -3.5313111453       15.3715579173       36.3626047175
  H         4.9939735893        7.3063612857       10.7791701534
  H         4.2189856268        6.0612250659       11.4625167149
  C         2.8759731928        7.2357381075       10.3571281033
  H         7.0919883035        6.9664129636       30.8610507119
  H         5.7800726746        6.2205427485       29.9222389136
  C         6.2358114281        5.2252897445       31.7374546300
  H        -8.6792149053       10.6550296288       24.2825960813
  H        -8.1512637773        9.2481554868       25.0412950426
  C        -9.1096599768       10.6071783409       26.3212743825
  S        -4.2124606884       13.8318609820       36.7169758350
  C        -3.6548328746       16.3630762188       37.4332669331
  H         2.6412695857        6.2857187421        9.8149015071
  H         2.0524973227        7.5035103622       10.9579919118
  H         3.0811138224        7.9114692080        9.5460356077
  H         6.7043448730        4.3830574833       31.1860938054
  H         5.2341649069        4.9079235305       31.9532371018
  H         6.7811423760        5.4352820183       32.6614581926
  H        -9.1820033996       11.6042174843       26.5628639865
  H        -8.7449626685        9.9265770155       27.1260594719
  H       -10.0932309787       10.2722974732       26.0002178514
  C        -4.5094523067       14.4478854085       38.3550797865
  N        -4.1912268798       15.7851720133       38.5247037678
  O        -3.2086557853       17.5216462575       37.3994531412
  S        -5.0256534652       13.3876274066       39.7543397962
  C        -4.1815435690       16.4270771257       39.9364703055
  H        -4.6389077695       17.3410188776       39.8024602551
  H        -4.8695368591       15.9901782825       40.5904707797
  C        -2.7770385461       16.4530498841       40.5069130704
  H        -2.1863388683       15.6893336838       40.0480816433
  H        -2.3492922690       17.3313401447       40.1618236274
  H        -2.7815105143       16.3190891941       41.5843460801
