352
i=
  H         3.6947591861        1.1809961246       14.1262946161
  C         4.2301369551        2.0309701134       13.7572658212
  H         5.1650588392        1.7077241823       13.3942017405
  C         3.4220373587        2.4301258729       12.5248384213
  C         4.2846240341        3.1320843193       14.7955034212
  C         4.2778548417        2.6636410833       11.1775411123
  H         2.8952973572        3.4021853644       12.6323994920
  H         2.6715663945        1.6704412735       12.3520586748
  H         4.7320549604        2.9400265233       15.7908992196
  H         3.3542867803        3.6857688305       14.8620653315
  H         4.9694539572        3.9316773022       14.5232292311
  C         4.5107412953        1.3916772345       10.3407627350
  H         3.7198387286        3.4372791974       10.5787507323
  H         5.1730476031        3.1114900330       11.3851839180
  C         5.0768878509        1.6270349161        8.8946283028
  H         3.6395497307        0.8398070151       10.2943128393
  H         5.2429998136        0.7889352949       10.8810980402
  C         6.2578450210        2.6229158846        8.7989419411
  H         4.2079906476        2.0983670064        8.3215470871
  H         5.3502718212        0.7452105050        8.3937721103
  C         7.6179345445        2.0039545496        9.2892834974
  H         6.2598485933        3.0156087286        7.7611840956
  H         6.1052706600        3.4849160863        9.4159871183
  C         8.7926913104        2.9087743094        9.4247838968
  H         7.8188140618        1.2007139463        8.6542638813
  H         7.4669379623        1.4022184176       10.2368939279
  C         8.5256395239        4.2419952580       10.0883029550
  C         9.2679567116        3.5434386395        8.1312208307
  C         9.9929035067        2.2062259430       10.1473519857
  C         8.8094646783        5.2880878300        9.2199553957
  C         7.9442618826        4.6138392732       11.3037599325
  C         9.3116756622        4.8931887935        8.0398520542
  C         9.8633567329        2.9117098658        7.0418278657
  H         9.6081699593        1.6052788568       10.9356480224
  H        10.4861345550        1.4989385711        9.4469004469
  C        11.1258439471        3.1394297538       10.4946691620
  S         8.4115971366        6.8618033759        9.9305530362
  C         7.8621358177        5.9763800001       11.3971541059
  H         7.7095850495        3.8229447934       11.9908524071
  C         9.6955634185        5.5497459483        6.8553872843
  H         9.8819290367        1.7807246518        7.1377302026
  C        10.3047267839        3.5618064285        5.9156754866
  H        10.8057225090        4.0968285889       10.8990602604
  H        11.6795986304        3.3710156106        9.6528901180
  C        12.2091800621        2.6606395495       11.4761261173
  C         7.6094713032        6.6346959471       12.7217062962
  C        10.2423223946        4.9021117630        5.7582712514
  H         9.6076656870        6.6222036696        6.8605440329
  C        10.7158338593        3.1312095627        4.6902205779
  H        13.1809102539        3.0670082234       11.2909111709
  H        12.3386097294        1.5302961778       11.3431998527
  C        11.8333810061        2.8339243844       12.8858219934
  C         7.7620112494        8.0311925412       13.0088786820
  C         7.2634258805        5.8066908964       13.9516464860
  C        10.7333472941        5.6062853516        4.4996413734
  C        10.9265014639        4.2134600830        3.8299753180
  S        11.0283893116        1.6154360913        4.0459111598
  H        12.1850226102        3.7921823906       13.1582718068
  H        10.7285380326        2.8727769199       12.9090662620
  C        12.4838357440        1.6976677102       13.7200731575
  N         8.1075407084        9.0293975467       12.0157645404
  C         7.6069552069        8.5537076022       14.2796139041
  C         7.0604708335        6.3591574096       15.2404532188
  H         7.1814591416        4.7146244120       14.0162535768
  C        12.1156666940        6.2845049200        4.7099547694
  C         9.7543578996        6.5171832996        3.6735603305
  C        11.2826630544        3.7392096423        2.5740655863
  C        11.3434128788        2.4126747640        2.5005331237
  H        13.5606653047        1.7922757760       13.5287984672
  H        12.1412172416        0.6966700597       13.3752543023
  C        12.0945438285        1.8947077719       15.2122020913
  S         8.0881909742       10.4795936182       12.7792141729
  N         7.6831906974        9.9844593901       14.2679240624
  C         7.2213304607        7.8168084087       15.4434511982
  H         6.7301081998        5.7649853481       16.0971156410
  H        11.9708201116        7.1010901688        5.4162743235
  H        12.3198714082        6.7295648383        3.7597338527
  C        13.3280192486        5.4759990810        5.2234244889
  H         9.8602190716        7.5254357953        4.1236720916
  H        10.1961966240        6.6370797947        2.6880812339
  C         8.2771175742        6.0107344501        3.6000268496
  H        11.5989556195        4.4857807456        1.7936212305
  C        11.6106011712        1.6603530563        1.2405819024
  H        11.5788933229        2.8365170258       15.3084559678
  H        11.5059872524        1.0431036029       15.5309121560
  C        13.3912872533        2.0092389347       16.0147946268
  C         7.1422877489        8.4655552150       16.7089162089
  H        13.1925503174        5.3446032950        6.2998841217
  H        13.4166384639        4.5773170440        4.7518337923
  C        14.5982152536        6.2511077136        4.9578387736
  H         7.6334715296        6.7504453812        4.1283231358
  H         8.2190567970        5.0963573251        4.1292981583
  C         7.8270264903        5.8394201568        2.0975198505
  C        11.5654239643        0.2994194212        1.0912597302
  C        11.8214895568        2.4891622699       -0.0169603284
  H        14.0881030983        2.6661538108       15.5502815178
  H        13.9149550696        1.0542920456       16.1238273594
  C        13.1373616090        2.5092714239       17.3619226234
  H         7.3364150852        9.3979784372       16.5237282482
  C         6.8271595152        8.0345895257       17.9644604508
  H        14.5716615611        7.2338176026        5.3635867092
  H        14.6966937105        6.4553630894        3.8828791696
  C        15.8091298257        5.5333448989        5.4630838961
  H         8.2204719045        6.6606769248        1.4356510966
  H         8.3372952856        4.9804076344        1.8377357134
  C         6.3777276898        5.5086971025        1.9741102325
  N        11.3315910988       -0.5840471924        2.1547088434
  C        11.9352327185       -0.3217878327       -0.0861582265
  C        12.1741540760        1.8364687224       -1.2011208301
  H        11.7124958442        3.5158501885        0.0252934508
  H        13.0034477766        1.6416405948       18.0356690526
  H        12.1639645615        3.0218511449       17.4637604377
  H        13.8798079204        3.1818976751       17.7771976111
  S         6.3618108113        6.4686697494       18.5104344627
  C         6.9510627090        9.0435367185       19.0370084952
  H        15.9070034440        5.8572636353        6.4710618821
  H        15.7342996845        4.4249801072        5.4049956902
  C        17.0781395803        5.9692153358        4.6893026843
  H         6.1218983859        4.9262834896        2.8685272686
  H         6.2298057400        4.8280548402        1.1494446160
  C         5.3750887951        6.6647961937        2.0330104818
  S        11.6022195868       -2.0611239579        1.5646590121
  N        11.8876073968       -1.7007002718        0.0175205175
  C        12.2836546541        0.3764392906       -1.2390048174
  H        12.2143173283        2.4410130469       -2.1022925865
  C         6.3693643267        7.1186061094       20.1121502870
  N         6.5772733958        8.4623786043       20.1864373941
  O         6.9677476981       10.2481152678       18.8148548777
  H        16.9642597494        5.6478597855        3.5929716629
  H        17.0303421604        7.0383597327        4.7119262625
  C        18.3147255949        5.4628945635        5.3915810387
  H         4.3442857813        6.3283547878        1.8322390412
  H         5.1645483668        7.0334771033        2.9994638692
  C         5.4696895171        7.7846593797        0.9531322138
  C        12.6297229701       -0.4338155257       -2.4016153910
  S         6.0140710808        6.2470806578       21.6095537451
  C         6.6434216549        9.1842454811       21.4250306013
  H        18.0701290811        4.4517816515        5.6605051206
  H        19.1457433171        5.3342510347        4.7193272777
  C        18.6869898361        6.3316106077        6.6113165275
  H         5.6831134064        7.3082419637       -0.0393062054
  H         6.3764653142        8.3625600433        1.1149115062
  C         4.1850101109        8.6292669951        0.9773996373
  H        12.6768971066       -1.4650083577       -2.2349611267
  C        13.0774921797       -0.0890236416       -3.6169423999
  H         5.8742710207        8.9325577935       22.1646212747
  H         6.5367887507       10.3297857625       21.2850820998
  C         8.0387976930        9.0286316103       22.0575044667
  H        17.8537074334        7.0148470019        6.9383179157
  H        19.5521972975        6.9565958117        6.3810977157
  C        19.2804321803        5.5503234205        7.8062292757
  H         3.3683484490        8.0853039492        0.4363062622
  H         3.8607484620        8.7928007198        2.0054643695
  C         4.4102641771       10.0854070268        0.4826349411
  S        13.4844365521        1.4567840854       -4.2397435832
  C        13.2827253236       -1.1866662658       -4.6192316120
  H         8.3166971074        8.0922158407       22.5742083875
  H         8.2330407163        9.7761025786       22.8273949894
  H         8.8232406560        9.2955992464       21.3456990210
  H        18.7501102086        4.6461720819        8.0355971677
  H        20.2289503970        5.2219673420        7.3506487101
  H        19.5126788945        6.2919806781        8.6002611244
  H         4.1680408581       10.2157624464       -0.5822805377
  H         3.7364298351       10.7677455113        0.9949000919
  H         5.4459215273       10.4317956251        0.4902730644
  C        13.7741665123        0.6710006698       -5.8143716663
  N        13.7200491050       -0.6924073330       -5.7856636789
  O        13.0113924018       -2.3650199454       -4.3653968515
  S        14.5499118516        1.4112076380       -7.2754934240
  C        13.9863438197       -1.5936233737       -6.8564428421
  H        13.9959432198       -2.6350049135       -6.5419666318
  H        14.9733584742       -1.3840451902       -7.2010692814
  C        13.0012487252       -1.4062110084       -7.9697813317
  H        13.3973505234       -0.8057549998       -8.7637766228
  H        12.1708924017       -0.8538568633       -7.5529847112
  H        12.8060786998       -2.3425257181       -8.4898260418
  H        -2.2040453694       14.7624969080       15.8094621848
  C        -2.8863604472       13.9336542445       16.1511903828
  H        -3.7852024905       14.3855592341       16.5957480784
  C        -2.0430053888       13.3167318201       17.2502807798
  C        -3.3663260860       12.9071925994       15.0497442742
  C        -2.5590081433       13.5759862592       18.5991514773
  H        -1.9442844938       12.2624577665       17.0690922606
  H        -1.0862067825       13.6889632586       17.2829769157
  H        -2.6861786520       12.0683590139       14.8103603234
  H        -4.2863568296       12.4403402102       15.4113290504
  H        -3.6245665825       13.2815166210       14.0586859338
  C        -1.5820667768       13.4031375112       19.7799268954
  H        -3.3841129751       12.8758619055       18.6149499714
  H        -2.9580360853       14.6349561554       18.7314031323
  C        -2.1990473950       13.7100351707       21.1613846496
  H        -1.2330371285       12.4223566144       19.7540741237
  H        -0.7782123568       14.0296464781       19.5889574140
  C        -1.1908153840       13.1736432567       22.1863173366
  H        -3.1502613121       13.2458829556       21.3130057333
  H        -2.2674349239       14.7856581196       21.2081305931
  C         0.1561510305       13.9713201917       22.3284599611
  H        -1.6605944450       13.0451761465       23.2273215700
  H        -0.9396655158       12.1494006036       21.9029342945
  C         1.3341598966       13.3701092889       23.1894013093
  H         0.5186851512       14.2981760101       21.3655045264
  H        -0.0317623138       14.9493065665       22.8024270344
  C         1.7688856977       11.9992355413       22.5694214748
  C         0.9825328244       12.6029216682       24.4715177913
  C         2.6613379116       14.3112355205       23.2694776839
  C         1.7811210011       10.9134092049       23.4263871334
  C         2.3792952803       11.6497842684       21.4015572006
  C         1.1435768446       11.2908076790       24.5615701786
  C         0.4522116341       13.2106035166       25.5984606780
  H         2.9223193908       14.6493684962       22.2732217118
  H         2.2234406757       15.1751331015       23.7889983741
  C         3.9119252292       13.7954622503       23.9298275550
  S         2.4153004500        9.4303913736       22.8400643420
  C         2.5821490947       10.3156418027       21.3417787202
  H         2.4511796163       12.3861568013       20.6302928951
  C         0.7239670184       10.6197017289       25.6881128045
  H         0.1606111833       14.2080594037       25.4970445591
  C         0.1744396097       12.5660689210       26.7669534006
  H         4.3720584470       12.9867674753       23.3642915892
  H         3.6428800093       13.4092102426       24.9051359396
  C         4.9567113976       14.8338250880       24.0265325840
  C         3.1233123461        9.6582443888       20.1122754180
  C         0.2583124975       11.2263784986       26.8434109949
  H         0.9026267629        9.5410798324       25.7479956010
  C        -0.2072225514       12.9082782233       28.0326246955
  H         5.8262738219       14.4814913153       24.6638786235
  H         4.6279656504       15.7139398093       24.5015111846
  C         5.5884175941       15.0990164169       22.6472964261
  C         3.0421022417        8.2594139941       19.7951359040
  C         3.5574438872       10.5516035631       19.0344213797
  C        -0.1305643723       10.5385475987       28.1089707558
  C        -0.4700060762       11.8132434573       28.8179526034
  S        -0.5673148381       14.3793394675       28.8674116465
  H         6.3155464257       15.9010199130       22.7048690893
  H         4.7892536430       15.4069664753       21.9850565797
  C         6.3799954089       13.9407959888       21.9627883564
  N         2.7447003877        7.2458298487       20.7492854100
  C         3.2364792858        7.7399500592       18.5732883347
  C         3.8624694140       10.0309585580       17.7249931850
  H         3.7872985281       11.5807390812       19.2428887873
  C         1.1115374460        9.7951432926       28.6712355197
  C        -1.3299081912        9.5989699541       27.8674388538
  C        -0.8226316310       12.1639659762       30.1094285370
  C        -0.8164771855       13.5396269955       30.3327585255
  H         7.3941229048       14.3299972101       22.1552507936
  H         6.2595265551       13.0075170979       22.4730946647
  C         6.2046769037       13.6975018988       20.4517615917
  S         2.8389293843        5.7781192044       20.0074978154
  N         2.9114359468        6.3672467212       18.5164534475
  C         3.6174148938        8.5337224723       17.4302238463
  H         4.2352332407       10.5838692241       16.8321429954
  H         1.6845529686        9.3028203662       27.8603731858
  H         0.6781939238        8.9179139142       29.2342812464
  C         2.0266609040       10.6276011982       29.4762937525
  H        -1.0790690201        8.9325820613       27.0098950748
  H        -1.5112972254        9.1011444430       28.7365625597
  C        -2.6128047277       10.2598630172       27.5587601920
  H        -0.9354662879       11.3547090826       30.8118798737
  C        -1.3158175501       14.1698235035       31.6384849039
  H         5.6823925069       14.4186842721       19.8681503148
  H         5.5528419355       12.7728462374       20.3494590461
  C         7.5644275184       13.3639359609       19.7510925987
  C         3.8094119915        7.9624409866       16.1716094603
  H         2.3373968360       11.4477939358       28.8613996170
  H         1.4757542957       11.0239538387       30.3502036890
  C         3.2279220170        9.7856395936       29.9784562661
  H        -2.5887088589       10.8556249220       26.5946842539
  H        -2.8288420962       10.9248346275       28.4364674829
  C        -3.7397085363        9.2679145678       27.2732481427
  C        -1.2708823439       15.5574343117       31.9379273280
  C        -1.5427105561       13.2652224417       32.7669028673
  H         8.2698782276       14.0434218814       20.0527231753
  H         7.7305899531       12.3262401268       19.9405788072
  C         7.3777764934       13.5286842794       18.2909699251
  H         3.7750063092        6.8767079028       16.2218792988
  C         4.0624198874        8.3491338643       14.8804093002
  H         3.6523468883        9.2412745382       29.1354635296
  H         3.0257051305        9.0595744905       30.7024121991
  C         4.3105285002       10.6305866217       30.6162115435
  H        -3.5507105738        8.5982291015       26.4166666108
  H        -3.8471248628        8.7105276339       28.1687959827
  C        -5.1058214447        9.9947051099       27.1527557397
  N        -1.0839092987       16.5369473226       30.9810520451
  C        -1.5339334935       16.0388086494       33.1540391866
  C        -1.9269937258       13.7769648297       34.0354249311
  H        -1.6396635886       12.1870177819       32.5093158977
  H         6.5371981796       12.9537884108       17.9898605932
  H         7.3065657887       14.5533932514       17.9031241618
  H         8.2008145674       13.1149698464       17.7093946335
  S         4.3902880333        9.9762902180       14.2971805209
  C         4.0736441492        7.3134567259       13.8077279078
  H         4.3395029572       11.6138097653       30.1663536684
  H         3.9787194539       10.7376229200       31.6517873377
  C         5.7078332565       10.1554456328       30.4873477859
  H        -5.0934887707       10.9908106810       27.5899924650
  H        -5.8763868633        9.4688679787       27.6928932302
  C        -5.5052812226       10.1610256868       25.6504778731
  S        -1.2949833033       17.9698632243       31.6827536844
  N        -1.6326595237       17.4185590243       33.1944238029
  C        -1.9293575757       15.2594099550       34.2568388269
  H        -2.1042532153       12.9568774793       34.7985521972
  C         4.3323102119        9.2647309725       12.6282838309
  N         4.2588047040        7.9231129062       12.6200461556
  O         3.8398521187        6.1567374697       13.9718708483
  H         6.4268257733       10.8895070918       30.6877355557
  H         5.9523068200        9.9401508204       29.4521212421
  C         5.9847318669        8.7749673362       31.1961224926
  H        -4.6974057761       10.5882430085       25.0837392286
  H        -5.5448322240        9.1605798370       25.2802587458
  C        -6.8693935720       10.8797152908       25.4925449424
  C        -2.3069083531       15.9326357190       35.4481632182
  S         4.8959137917       10.1785344272       11.2202932666
  C         4.3416999521        7.0739903935       11.4056587716
  H         6.6380917152        9.0191842871       32.0463543735
  H         5.1359189130        8.2914308766       31.6387443276
  C         6.6513633851        7.6979254582       30.3044673824
  H        -6.7899630186       11.5213167027       24.5978156787
  H        -7.0517926316       11.6015225835       26.3114047494
  C        -7.9598762086        9.8223493889       25.4307782687
  H        -2.2067960406       17.0346948414       35.4847106398
  C        -2.7486432827       15.4538338632       36.6633410524
  H         5.1836313687        7.4737446808       10.8126127697
  H         4.6250859893        6.0366004438       11.5890311888
  C         3.0595652513        7.0511466532       10.6142788702
  H         7.5837416217        8.1191204585       29.9986686360
  H         6.2675305737        7.3420225446       29.3316895611
  C         7.0263214545        6.4371609073       31.1431157485
  H        -8.1435453534        9.5071631176       24.4152710220
  H        -7.7200512737        8.8961009716       25.9844427635
  C        -9.2170451079       10.3532361113       26.0489846662
  S        -3.2096131973       13.8707584952       36.9956347586
  C        -3.0194406594       16.4421784406       37.7526955982
  H         2.2334962438        7.6934353357       10.9530145501
  H         3.3956755319        7.5331091006        9.7081850651
  H         2.6178822769        6.0455538413       10.5495246101
  H         7.3820016521        6.6903497808       32.1630420691
  H         7.7350230938        5.7571456433       30.6116455065
  H         6.1789182205        5.7704285506       31.4189039919
  H        -9.7610087892       11.0505835470       25.3008677484
  H        -8.9976407565       10.8364572232       27.0071547866
  H        -9.9093765222        9.5355662285       26.1693071471
  C        -3.7676931510       14.3877295865       38.6004929338
  N        -3.7057293133       15.7609281393       38.7285845708
  O        -2.7589751943       17.6783331773       37.7177627870
  S        -4.8810079629       13.5274471939       39.7242490415
  C        -3.9942134933       16.4913041759       39.9725228117
  H        -4.2529771107       17.4739412376       39.6105055569
  H        -4.9417615856       16.2715790728       40.5414310431
  C        -2.7864880169       16.3821264885       40.9610927144
  H        -1.8937453371       16.3889425139       40.3353540875
  H        -2.7217961924       17.3312640847       41.5024886847
  H        -2.9054047904       15.6164473639       41.6494227720
