352
i=
  H         2.6790474297        2.9643052351       11.9305309843
  C         3.3717933644        2.3185025342       12.4888536923
  H         2.7356876876        1.4179163262       12.5046991685
  C         4.5821219883        2.2987997457       11.5540328006
  C         3.6539363696        2.7666405876       13.9503773684
  C         4.0668314678        1.8597133031       10.1662578750
  H         5.3274105086        1.5612292773       11.9818348765
  H         5.1209171950        3.2343093384       11.5348352377
  H         4.4769709605        3.4522344466       13.9901464129
  H         3.9925958965        1.8389095518       14.4154561257
  H         2.8044937053        3.0946598624       14.4916911065
  C         5.0006760404        0.9687137206        9.4392396330
  H         3.1121425284        1.2929856181       10.1979677073
  H         3.7821843704        2.7922661940        9.6607692399
  C         5.5979797308        1.7187370697        8.2152478955
  H         4.3105920795        0.1900781398        9.0508339254
  H         5.7073896799        0.4746139671       10.1225575365
  C         6.8300563006        2.5615859640        8.4927276041
  H         4.8795018561        2.4296714200        7.7204038301
  H         5.8230402141        1.0052530354        7.4556701585
  C         8.1570091333        1.8680744042        8.9861588595
  H         7.0574042023        3.3830058880        7.8664963123
  H         6.4096620605        3.0024898233        9.4706434289
  C         9.3224014843        2.8355011690        9.2392670080
  H         8.3373711951        1.2076039256        8.1158356119
  H         7.8963436049        1.3578620295        9.8864814119
  C         8.8844559135        4.1883926303        9.8843544397
  C         9.7293197743        3.5230246541        8.0193819315
  C        10.4803650638        2.2012118688        9.9746247934
  C         9.0817868089        5.2818220002        9.1005316847
  C         8.2534895608        4.5424696379       11.1287263490
  C         9.6546325038        4.8793246687        7.9147541894
  C        10.2896887297        2.8311942004        6.9394907415
  H        10.1165905867        1.9483313084       10.9694129183
  H        10.7597695987        1.2025522919        9.4869942760
  C        11.8106482565        3.0108937496       10.1185705576
  S         8.4579775263        6.7194660657        9.7495619231
  C         7.9952997990        5.9075434311       11.1780178419
  H         8.0516405821        3.8294985565       11.8686423271
  C        10.0857759533        5.4539260788        6.7181168635
  H        10.4391350852        1.7289308881        6.9875717806
  C        10.5414891900        3.4298878950        5.7401893488
  H        11.6607332347        4.0718444487       10.3353523927
  H        12.3551359727        3.0793157436        9.1436256314
  C        12.6914035524        2.4885734951       11.2583863347
  C         7.5957407413        6.6663668846       12.4020785014
  C        10.5395847879        4.7755211755        5.5894773920
  H        10.0473422889        6.4718213265        6.7736197937
  C        10.9694580980        3.0339073045        4.4732544086
  H        13.7428563596        2.6860632122       11.0493451383
  H        12.5925707175        1.4114596485       11.1292431144
  C        12.2073791911        3.0900463580       12.5902585049
  C         7.6381886917        8.0645356048       12.6043707790
  C         7.1785734886        5.8587551676       13.5762185360
  C        10.9341673024        5.4744246748        4.2834335632
  C        11.1226407348        4.0694061110        3.5713947212
  S        11.2553088451        1.5291181181        3.6945784810
  H        12.5872543262        4.0553527680       12.8667027063
  H        11.0779078099        3.0900064345       12.7784485399
  C        12.8262719838        2.1707732319       13.6751579268
  N         8.0340427002        8.9910214030       11.6162670482
  C         7.5383393093        8.6125679241       13.9011254272
  C         6.9165614946        6.4191793504       14.8417801814
  H         7.3237537260        4.7947227061       13.5683168826
  C        12.2549472809        6.3091454948        4.4045664152
  C         9.8354169381        6.2815328294        3.5841631410
  C        11.4737487674        3.6999285423        2.2443043644
  C        11.5535102128        2.3260567258        2.1481564856
  H        13.9258091073        2.3045388958       13.3970579021
  H        12.5123238741        1.0963725638       13.5645990205
  C        12.3360640958        2.6244658465       15.1137181279
  S         8.1060939200       10.4783102026       12.3550434433
  N         7.7386470596        9.9633955207       13.8784842554
  C         7.0755469127        7.8807581928       15.0852884180
  H         6.4468027661        5.7603601718       15.5508333370
  H        12.1053152017        7.2009719287        4.9778749974
  H        12.4840281234        6.6084081317        3.3886823054
  C        13.5220291374        5.5473208650        5.0610506373
  H         9.6054710081        7.2061864921        4.1272918246
  H        10.3587729157        6.7253709258        2.7147333073
  C         8.5278568543        5.6349088633        3.1081893783
  H        11.5765924755        4.4668169006        1.4771135234
  C        11.8895042328        1.6671942238        0.8611679096
  H        12.1647202780        3.6647690171       15.3108043574
  H        11.3562029981        2.0955092023       15.1803219653
  C        13.2344620532        2.1825315511       16.2354787437
  C         6.8203356421        8.5907279744       16.3145285477
  H        13.3125983088        5.3604650504        6.1655171534
  H        13.7388402702        4.5542088210        4.6303133520
  C        14.8103502939        6.3912650002        4.9891813149
  H         8.1130173246        5.0584692304        3.9252911629
  H         8.7210361684        4.8865062632        2.3528463469
  C         7.4764776151        6.5205648494        2.6158160649
  C        12.1490834261        0.3090869178        0.6908925293
  C        12.0857396180        2.4958819852       -0.3889886314
  H        14.2169471337        2.6297988725       15.9530221809
  H        13.2632345864        1.1090410080       16.4840906928
  C        12.7031853850        2.8186815194       17.4948636976
  H         6.9360788156        9.7107168968       16.2596581908
  C         6.5584958755        8.2075732930       17.5731989092
  H        14.8666055699        7.1708468436        5.7281114304
  H        15.0783948577        6.8783378585        4.0548607588
  C        15.9706510189        5.5037154582        4.9953850741
  H         7.2743179593        7.1265265364        3.4898163716
  H         8.0049124021        7.0790482720        1.8191632476
  C         6.2109382496        5.8241560808        2.0473301961
  N        12.0022642033       -0.7148665854        1.6902188357
  C        12.2718498227       -0.2694908851       -0.5259171530
  C        12.3290156967        1.9364818860       -1.6778400687
  H        11.9021371329        3.5592916503       -0.3541502288
  H        13.4421093209        2.7802309533       18.2709577189
  H        11.8068501704        2.3596088207       17.9234153133
  H        12.5186323260        3.8920527716       17.4532327676
  S         6.2767149019        6.5649338995       18.1247791663
  C         6.4260533247        9.2100241770       18.6425505599
  H        15.8210551223        4.6913749808        4.2090110043
  H        16.8509144180        6.1497342643        4.7675477755
  C        16.0267685882        4.9543508605        6.4053787085
  H         5.8524150623        5.1560474149        2.8642246665
  H         6.3853124919        5.1521517056        1.1774947426
  C         5.0646672904        6.9041147996        1.9877017007
  S        12.0067069011       -2.1640346583        1.0335317996
  N        12.1264951357       -1.6594862460       -0.4754844965
  C        12.4778213832        0.4586887801       -1.7319851945
  H        12.4848510496        2.5247869317       -2.5604398073
  C         6.0473433954        7.2965975729       19.7503094908
  N         5.9910946125        8.6474307002       19.7722048414
  O         6.6702052597       10.3874979215       18.5696789942
  H        15.9069059566        5.7887029767        7.0423166942
  H        15.2322838948        4.2847903243        6.6332383832
  C        17.3795522346        4.2338232079        6.6158389876
  H         4.1056000627        6.3393616906        2.0302586147
  H         5.1941916946        7.5371871889        2.8401685269
  C         5.0613241981        7.6849469446        0.6971559639
  C        12.7340550220       -0.2884402922       -2.9818370631
  S         5.6698590503        6.3962944975       21.1647978988
  C         5.8344164187        9.4910548536       20.9429365568
  H        17.1490119367        3.3988288960        7.3122195212
  H        17.7344064742        3.9895478080        5.6170694479
  C        18.4829001525        5.1336540636        7.3372872482
  H         5.0646373673        6.9672394836       -0.1237072020
  H         6.0184876241        8.1465226330        0.5463920027
  C         3.8850058102        8.6741565080        0.6106655382
  H        12.6877042187       -1.3652066137       -3.0158572779
  C        13.2131004351        0.0843170182       -4.2014523862
  H         5.2579727421        8.9614515328       21.7100049777
  H         5.3603447248       10.4236801874       20.7430096428
  C         7.2715981411        9.8089361692       21.4372546964
  H        18.7594361508        4.5957508049        8.2008761323
  H        18.0360481029        6.0168237632        7.7796055948
  C        19.6259736964        5.5157530206        6.4851304964
  H         3.3352099879        8.5507579443       -0.3756285596
  H         3.1830979783        8.5111878640        1.3867663776
  C         4.3092222748       10.1242953134        0.6435929044
  S        13.7676420670        1.6293707475       -4.6884611476
  C        13.2839081414       -0.9448415733       -5.2667824898
  H         7.7682402718        9.0243030598       22.0369717123
  H         7.2187508375       10.6491546629       22.1579540131
  H         7.9572371394       10.0717783638       20.6644092159
  H        19.3345276525        6.1619604940        5.6687282734
  H        20.2225509072        6.0102018478        7.2189766124
  H        20.1031173944        4.6197900754        6.1474220090
  H         4.6306463037       10.4665916048       -0.3749555116
  H         3.5051753648       10.6838631421        0.9822930645
  H         5.0861292511       10.2772777226        1.3455282561
  C        14.0309996222        0.9252238866       -6.2878260907
  N        13.8906760905       -0.4054642612       -6.3654532310
  O        12.9137370921       -2.0949370349       -5.1117977486
  S        14.9285689228        1.7544083991       -7.5655084444
  C        14.0863394570       -1.2093984184       -7.5820641472
  H        14.3994214158       -2.2343688218       -7.4454829721
  H        14.8979829680       -0.7235212656       -8.2565733084
  C        12.7601407784       -1.1169197259       -8.3698933439
  H        11.9703767307       -1.7426349838       -7.8451709540
  H        12.9099525498       -1.5157677248       -9.3882104531
  H        12.2996143293       -0.1312359494       -8.4266078661
  H        -1.5224801025       14.7522448404       14.3809992580
  C        -2.0507527157       14.4642316087       15.2824651759
  H        -2.7765498757       15.2603045689       15.4591835197
  C        -1.1762253322       14.4259370481       16.5237133126
  C        -2.9279036861       13.2323399475       15.0384335969
  C        -1.9097567845       14.1762057371       17.8578321361
  H        -0.4694213315       13.6944157969       16.2766561350
  H        -0.6575344336       15.4247403434       16.4245811644
  H        -3.5531756968       13.3092823443       14.1004543920
  H        -2.3254677595       12.3613326243       14.7884863951
  H        -3.7495486802       13.0380136980       15.8059025739
  C        -0.9296741075       13.9505501437       18.9838796554
  H        -2.4787633420       13.3302930620       17.8330948333
  H        -2.6794403569       14.9013891565       18.1997777545
  C        -1.6555521903       13.9075595412       20.3596448852
  H        -0.4733823069       13.0564155283       18.8481572849
  H        -0.1735003130       14.8341253235       18.9219916287
  C        -0.8973431758       13.2106783051       21.4661298824
  H        -2.5042333737       13.2284071583       20.3386584584
  H        -2.1052942683       14.8658223510       20.6408051884
  C         0.3222519321       14.0205951833       22.0113795551
  H        -1.6078504629       13.0385014286       22.2536683531
  H        -0.5848726417       12.1819105066       21.1801013336
  C         1.3909807956       13.3538424527       22.8796980101
  H         0.8649151065       14.2239768198       21.0669855957
  H         0.0364803305       15.0335000082       22.2108942502
  C         1.8053520258       12.0443498133       22.1877707504
  C         0.9426712045       12.6616040081       24.0909674928
  C         2.6242230745       14.2437936898       23.0330509321
  C         1.4923162759       10.9565217592       22.9794640162
  C         2.3012054300       11.6466415104       20.9493780404
  C         1.0486427616       11.3005716532       24.2205664914
  C         0.4740962617       13.2194708994       25.2778821232
  H         2.8626727097       14.9027736932       22.1862970173
  H         2.4737140271       14.9744090435       23.8219961372
  C         3.8864251323       13.4525314473       23.4247260218
  S         1.8960068473        9.4918598467       22.1933446294
  C         2.3188895397       10.3099154242       20.8001758597
  H         2.3716252937       12.4649138239       20.2178364800
  C         0.7020600370       10.6527906107       25.3392278441
  H         0.3903952759       14.3185796378       25.3508167599
  C         0.0853185796       12.5918496790       26.4632378628
  H         4.1272989496       12.7349162908       22.6943930192
  H         3.7301131382       12.8369780291       24.3096043705
  C         5.0688502731       14.2483559045       23.8380309711
  C         2.6897086202        9.6713235967       19.4922919207
  C         0.1636279662       11.2317755039       26.5359629255
  H         0.7372997584        9.5780676747       25.2539825675
  C        -0.4070782974       12.9804729075       27.6939494410
  H         5.7654545878       13.7783341130       24.6026923680
  H         4.6570805110       15.1295187281       24.4294032187
  C         5.7781186605       14.8436239146       22.6580540966
  C         2.5922540904        8.2612120953       19.3057858712
  C         3.0432922047       10.5736270655       18.3309149473
  C        -0.3075771129       10.5282191244       27.8009494015
  C        -0.6457850669       11.8905832326       28.5267960800
  S        -0.7068657677       14.4756143005       28.5336780837
  H         6.3813084709       15.5758769746       23.0970263454
  H         5.1805803605       15.4723313217       21.9680585531
  C         6.6573342625       13.9288218525       21.9127358129
  N         2.1256450378        7.2178134368       20.1983659169
  C         2.9112109681        7.7234244951       18.0977300295
  C         3.1443534626        9.9641511330       17.0763931865
  H         3.4766047810       11.5448634714       18.5274807467
  C         0.7813676327        9.7675948821       28.6239362244
  C        -1.6861783249        9.6969464850       27.7542254308
  C        -0.9686295822       12.2992129704       29.8581234884
  C        -0.9678240072       13.6451963325       29.9248795587
  H         7.6716194336       14.2577602619       21.8177188172
  H         6.6277573324       13.1282559370       22.5873445026
  C         6.1334314875       13.4836109328       20.5312925688
  S         2.3094747783        5.7366566883       19.4376228150
  N         2.8307151890        6.3632287021       18.0770675206
  C         3.1123982751        8.4830892271       16.9310902621
  H         3.5950495013       10.5443569030       16.2756108210
  H         1.0188858802        8.8111155384       28.0605757664
  H         0.3362467261        9.3796436143       29.5873370018
  C         2.0522551645       10.5897855094       28.8856323606
  H        -1.4939647480        8.8891595955       27.1328918672
  H        -1.8173695503        9.3527339796       28.7882448070
  C        -2.9321339778       10.5355240231       27.4131467342
  H        -1.0724465495       11.5934394788       30.7155105918
  C        -1.3906605728       14.5071014941       31.1918343946
  H         5.0835039299       13.7859409269       20.6286098504
  H         6.2210496207       12.4163513922       20.4673826399
  C         6.9329549457       14.2170509094       19.4677504959
  C         3.4513310429        7.7975677134       15.7315440118
  H         2.4594683416       11.1336994445       28.0409137938
  H         1.8438431799       11.3805853668       29.6290357332
  C         3.1484415641        9.8141355819       29.5971557024
  H        -2.8335448995       10.9910413000       26.4491386888
  H        -3.0984050193       11.2638374393       28.1810189611
  C        -4.1388091526        9.5885287182       27.2393812480
  C        -1.4363200301       15.8846002948       31.3187841611
  C        -1.5752275044       13.7140221370       32.4449959856
  H         7.0529652174       15.2509584511       19.7645239250
  H         7.9297982624       13.7560718451       19.3482269880
  C         6.3444099166       14.2467767289       18.0207898158
  H         3.1358383825        6.7432648665       15.6528259781
  C         3.7483066079        8.1869470435       14.4444380348
  H         3.5385770805        9.0776293230       28.9381840850
  H         2.6538080687        9.3864938965       30.4786462180
  C         4.3441092939       10.6538496274       30.0654603360
  H        -3.7208619389        8.9950451929       26.4820798508
  H        -4.4149142153        8.9326053768       28.0523988376
  C        -5.4230206264       10.2460188462       26.6446042550
  N        -1.0745485142       16.7485260846       30.3106338605
  C        -1.9119282999       16.5516360101       32.4468683586
  C        -1.9664411494       14.3753658925       33.5815988227
  H        -1.3963477530       12.6779629228       32.4185973386
  H         7.0293583251       13.7361564394       17.3393619500
  H         5.4160642873       13.7441188569       17.8880052535
  H         6.1635163617       15.2477418687       17.6480537973
  S         4.0044054722        9.7982410388       13.8166008085
  C         3.7871129364        7.1069274519       13.4303448540
  H         4.2995030761       11.5886605161       29.6276075393
  H         4.3078334185       10.8082301540       31.1155555519
  C         5.6790746194        9.9543900730       29.8367020176
  H        -5.5258368424       11.1921900763       27.1349260798
  H        -6.3145539169        9.5973808764       26.8363028228
  C        -5.1769849593       10.4709311328       25.2060460814
  S        -1.0142460177       18.2410478859       30.9224990800
  N        -1.8657654872       17.9489065526       32.3008142153
  C        -2.2010740994       15.8393184978       33.6531198242
  H        -2.0761984759       13.9118499389       34.5394482770
  C         4.2843385837        8.9859121120       12.2068640267
  N         4.1578090324        7.5942537482       12.2618992400
  O         3.5857772123        5.8765286381       13.6364182162
  H         6.5939016397       10.4368067597       30.2938646096
  H         5.8834151089       10.0258923182       28.7370230637
  C         5.6096385545        8.4518469026       30.2720905780
  H        -4.3038227233       11.1222742180       24.9547841215
  H        -5.0684140272        9.5189117785       24.5920760479
  C        -6.3548121780       11.2278129948       24.5691851007
  C        -2.5629441593       16.4906517718       34.8985702813
  S         4.8273733697        9.8223249010       10.7780290211
  C         4.0815393981        6.8297255922       11.0243512607
  H         4.9360558786        8.3498564787       31.1249471770
  H         5.3072583256        7.8399304500       29.3881448043
  C         6.9627861929        7.8635468894       30.7656563258
  H        -6.2024027808       11.4791837584       23.5143055374
  H        -6.5620668660       12.1156517861       25.1339612068
  C        -7.6571060756       10.4041095604       24.7170507573
  H        -2.5600266325       17.5112646334       34.7151519926
  C        -3.0562789712       16.0964372648       36.0694393171
  H         4.7074875383        7.1719301614       10.2715156773
  H         4.5078187141        5.8556870863       11.4045180822
  C         2.6116613649        6.6997234452       10.6003955078
  H         7.2204087540        8.5397422305       31.5779446588
  H         7.6510125162        8.0813627075       29.9836428732
  C         7.0369773517        6.3678429105       31.0278554142
  H        -8.2213723620       10.6355076416       23.8047824366
  H        -7.5534607157        9.3217049722       24.7099862658
  C        -8.6175531072       10.7334796597       25.8681328873
  S        -3.5712804260       14.5526171836       36.6011380680
  C        -3.0895580395       17.1879653136       37.0572235644
  H         1.9496797426        6.5585258519       11.4492026491
  H         2.2735980033        7.5853124457       10.0764995777
  H         2.3705728527        5.9139518444        9.9022802016
  H         7.9219650619        6.0020429523       30.6122985096
  H         6.3465076441        5.7632690429       30.5186851915
  H         7.1595242516        6.2746345657       32.0976496037
  H        -8.4174849076       11.7484714609       26.0557724314
  H        -8.3341146587       10.2648269759       26.8536029641
  H        -9.6423823397       10.5196502108       25.6158579138
  C        -3.8464782823       15.3811478709       38.1326035687
  N        -3.6280978862       16.6812966218       38.1597015446
  O        -2.6464400536       18.3255138781       36.8877900830
  S        -4.5665394579       14.5121080895       39.4322997316
  C        -3.6478354832       17.5576546313       39.4215164739
  H        -3.9866581014       18.5263164663       39.1414542655
  H        -4.2857412305       17.1414118901       40.1748299181
  C        -2.2291432659       17.6550787534       40.0160414316
  H        -2.2365622490       18.4066601264       40.7673393290
  H        -1.9633057300       16.6962146626       40.4845519666
  H        -1.5190258464       17.7576158717       39.3214125267
