352
i=
  H         4.4803001226        3.4589735851       13.2518000552
  C         3.4424184041        2.9713595556       13.1546937083
  H         2.7503712516        3.4648886591       13.7338307876
  C         2.8315865845        3.1674774752       11.7336354272
  C         3.6650724355        1.5337830715       13.7483006290
  C         3.8096577858        3.3063240909       10.5840498080
  H         2.2277018101        4.0176937599       11.7363977685
  H         2.1782029987        2.3428645663       11.4896417829
  H         4.0034493830        0.8206028601       12.9530935395
  H         2.7436629317        1.1072669749       14.1858508401
  H         4.4751824355        1.4823484514       14.4226333479
  C         4.6771770444        2.0678694289       10.4483355589
  H         3.3351822640        3.5399857010        9.6147904223
  H         4.4277388842        4.1911696279       10.7829747905
  C         5.1680315689        1.8314873533        9.0022478592
  H         3.9733636868        1.1885086905       10.5762097327
  H         5.4273816115        1.9590443189       11.2686217931
  C         6.3483218829        2.6647719600        8.5929199742
  H         4.3564286789        1.9840454370        8.3214301676
  H         5.3789518522        0.7425686317        8.9022250661
  C         7.5833539257        2.0516977112        9.1326668937
  H         6.4888636233        2.8103364470        7.5122380672
  H         6.2058686884        3.6670700517        9.0002300491
  C         8.9162930195        2.8289275028        9.2726483723
  H         7.7749254118        1.2059107207        8.4509897310
  H         7.4677318234        1.6137922244       10.1384106632
  C         8.5514455131        4.1359172791       10.0062888062
  C         9.3416902694        3.5093852289        8.0614537811
  C        10.0144077736        1.9465913773        9.9558228609
  C         8.7564060811        5.2859579307        9.2547186178
  C         8.0869253447        4.4700523953       11.3144951084
  C         9.2648825828        4.8605213967        8.0024108519
  C         9.6983462113        2.8571411697        6.8951623570
  H         9.6495521054        1.4661619803       10.8519828272
  H        10.2926161591        1.0418276216        9.3994128618
  C        11.2742276458        2.8621505855       10.2785347457
  S         8.2245858691        6.7644829880       10.0428151633
  C         7.8908025698        5.8223186250       11.4323347651
  H         7.8884394651        3.6601138874       12.0613298771
  C         9.5057906218        5.4731862358        6.8103706556
  H         9.5499176778        1.7746279538        7.0038697924
  C         9.9498166618        3.4873020408        5.7145886236
  H        11.0451056700        3.7951985054       10.7122412859
  H        11.7198520923        3.0637854659        9.2828188467
  C        12.1008560221        2.1539414103       11.2440106826
  C         7.4621973158        6.4128750424       12.7839471430
  C         9.8101993087        4.8274245435        5.6210443497
  H         9.4204769783        6.5660095564        6.7106158117
  C        10.3404813322        3.1188974547        4.4341742214
  H        13.1197347890        2.5101458629       11.1370041484
  H        12.1711093990        1.0509038425       11.0214488249
  C        11.6198747006        2.2272729128       12.6996716390
  C         7.4950129428        7.8140469988       13.0516851552
  C         6.9112809704        5.5286775606       13.8846974300
  C        10.1965505109        5.5243579093        4.3658634843
  C        10.4825148354        4.2159899034        3.6054928338
  S        10.7664566761        1.6105363432        3.7292482314
  H        10.9436469985        3.1533319934       12.8047877134
  H        10.9822656215        1.4074807790       12.8423605137
  C        12.7641687557        2.1369546214       13.7347856488
  N         7.8862769552        8.7939164339       12.1653089985
  C         7.2047821887        8.3325004388       14.3270559371
  C         6.4668429137        6.0143310904       15.1133068655
  H         6.8334767229        4.4986619326       13.6874445496
  C        11.4687573206        6.3843851675        4.5965072730
  C         8.9271903127        6.3195208151        3.8719557340
  C        10.8145861452        3.8082274904        2.2784405299
  C        10.9466797939        2.4391130650        2.2120942814
  H        13.5363957207        2.8693918351       13.5554153014
  H        13.3311540645        1.2145240011       13.4648988778
  C        12.3183690875        2.2765852844       15.2761279212
  S         7.9273820714       10.2203232467       12.9558552781
  N         7.5485851309        9.6880472413       14.4728862901
  C         6.7429735210        7.4882953922       15.4160884613
  H         5.9351793261        5.2932607742       15.7842794488
  H        11.2925601519        7.2301451772        5.2977451120
  H        11.8776107859        6.8381007291        3.6846866450
  C        12.6164298469        5.6316244169        5.2541860162
  H         8.7550784646        7.0538939024        4.6496571956
  H         9.1850679915        6.8838165702        2.9889229716
  C         7.6574275505        5.5592847096        3.5444970832
  H        10.9537558388        4.4988240924        1.4412537548
  C        11.2652287813        1.6219808251        0.9873920489
  H        11.8112617043        3.2429017992       15.3096819344
  H        11.5252503829        1.4934440739       15.4805597874
  C        13.5556631385        2.1295104734       16.1448726752
  C         6.5530893728        8.1525096815       16.6429406620
  H        12.4247759996        5.4597120696        6.3221543990
  H        12.7065584929        4.6268730001        4.7953177292
  C        14.0279399122        6.3045864902        5.1499971987
  H         7.1485363595        5.2773284141        4.4932504389
  H         7.9798542163        4.6731986113        3.0877471530
  C         6.8281830145        6.4065984618        2.6181747304
  C        11.2571641694        0.2095135895        0.8546778540
  C        11.5913419989        2.3208704514       -0.2988712277
  H        14.3250819688        2.8536523226       15.8812971288
  H        13.9834541286        1.1608820586       15.9018259862
  C        13.2810894690        2.0401792053       17.6229158559
  H         6.6504491562        9.2302850576       16.5940856952
  C         6.3195816468        7.7232717912       17.9014394447
  H        14.0162446447        7.1772914635        5.8203658990
  H        14.3144146750        6.6238701561        4.1647506943
  C        15.0867539267        5.3770754345        5.7204352087
  H         6.8800350250        7.4785385185        2.8552749563
  H         7.1483796591        6.2312578732        1.5623461672
  C         5.2717915428        6.0177849981        2.6855157517
  N        11.0616233000       -0.6532007434        1.9150100794
  C        11.5648397070       -0.4628543613       -0.3258168978
  C        11.9799209316        1.6628081856       -1.4373150339
  H        11.4913597833        3.3758263578       -0.2532709522
  H        14.0608390670        2.4211677669       18.2244160838
  H        13.0738500829        0.9896543593       17.8668895398
  H        12.4362030117        2.6924293263       17.8897461436
  S         6.0607722248        6.0739343673       18.3562008124
  C         6.1245767380        8.7232349653       18.9522011182
  H        14.5471262637        4.6198807641        6.3340711756
  H        15.5959478711        4.8302135104        4.9157788438
  C        16.1692433120        6.0826323073        6.4680739844
  H         5.0065338949        5.8895625081        3.7669814693
  H         5.2183763222        4.9792593753        2.3147949030
  C         4.4561950827        6.8827169678        1.7257398044
  S        11.3389855022       -2.1143353346        1.4233376033
  N        11.6539849272       -1.8481553653       -0.1846617238
  C        12.0409539566        0.1946792224       -1.4552838474
  H        12.2347493524        2.2902578792       -2.3498035638
  C         5.6670767192        6.7373648442       19.9244987925
  N         5.7398676841        8.0874007492       20.0683519849
  O         6.3025956969        9.9249460294       18.9085558447
  H        16.6796652126        6.7455008757        5.7527083851
  H        15.7271560713        6.6007285724        7.2618799522
  C        17.2395203795        5.1093032574        6.9692120375
  H         4.9329935211        7.0605109610        0.7575983823
  H         3.7098318149        6.1772827002        1.3949611005
  C         3.8508305899        8.2457072090        2.2240308823
  C        12.4019315487       -0.5921865334       -2.5409484552
  S         5.1884050643        5.7167597586       21.2643774266
  C         5.7489995450        8.7750537092       21.3947077357
  H        16.8985129005        4.6414426363        7.8947644675
  H        17.2375761234        4.2905695118        6.2657945874
  C        18.5108922654        5.8611835136        7.2573342201
  H         3.6155368900        8.2307549654        3.2642359528
  H         2.9176175645        8.3152961238        1.6155965289
  C         4.6295050992        9.4807994545        1.8864341210
  H        12.2438075006       -1.6358752476       -2.3702481801
  C        12.8487848248       -0.2558320247       -3.8251343376
  H         5.0072800367        8.3090408919       22.0226583929
  H         5.3765877439        9.8273662535       21.2487432315
  C         7.1051050062        8.7585831621       22.0323807055
  H        19.1075328931        5.5008636036        8.0426158698
  H        18.3469069608        6.8589190732        7.6205832021
  C        19.3344957129        6.0559907709        6.0558614109
  H         5.0346654016        9.9574587638        2.7879046190
  H         5.5701337069        9.0208414344        1.4437113328
  C         3.9235449666       10.5054478432        0.9382714227
  S        13.4648501476        1.2647085446       -4.2973688630
  C        13.0056077858       -1.3619327717       -4.7622883876
  H         7.9500008526        9.0958003474       21.3549456990
  H         7.4724400188        7.7396326519       22.3908739844
  H         7.2062896066        9.5130024315       22.7573523069
  H        18.9649028319        6.8655266767        5.3424819685
  H        20.3529377361        6.3089433913        6.3476855076
  H        19.3860238034        5.1417661626        5.5137210645
  H         3.2464041509       11.0393992691        1.5948161968
  H         4.5492693989       11.2970754216        0.4793409361
  H         3.2979233396       10.0644585942        0.1204504645
  C        13.9079938189        0.4348475730       -5.8210721285
  N        13.6949546789       -0.8973775480       -5.8071296155
  O        12.7449857503       -2.5886367519       -4.5572382268
  S        14.5910441559        1.3357272184       -7.2621917236
  C        13.8726371341       -1.7376944337       -6.9817955365
  H        13.8446802808       -2.8178102137       -6.7588104220
  H        14.7808239032       -1.5036624556       -7.5931306198
  C        12.6644835037       -1.5484247299       -7.8889011787
  H        12.4815512567       -2.4209108849       -8.4966758549
  H        12.7078157300       -0.5953148191       -8.4530955495
  H        11.7952477615       -1.4474005576       -7.2800309834
  H        -2.3414451234       12.6280362525       17.1076408106
  C        -1.9587329829       13.6713100647       16.8707535887
  H        -0.8886669441       13.7615516414       17.0694184797
  C        -2.6394704652       14.5885058210       17.8619035569
  C        -2.3984611321       13.9002047940       15.4093238997
  C        -3.3167146391       13.8875137876       18.9787945186
  H        -1.9247007819       15.2532877164       18.3889638444
  H        -3.4279387662       15.1492542332       17.3665008473
  H        -1.5950279802       14.1181089001       14.7488642978
  H        -2.8904703647       13.0420083719       14.9442638519
  H        -3.1151774705       14.7787373500       15.3211477535
  C        -2.2775225085       13.1759338974       19.8590596809
  H        -4.0409415173       13.1282400590       18.6098907859
  H        -3.8396549945       14.6642844866       19.5522457576
  C        -2.4338201784       13.3320831587       21.3638120706
  H        -2.2112616546       12.1242692715       19.6162384624
  H        -1.2798280788       13.5409301948       19.6819908752
  C        -1.3376662761       12.6049465759       22.1316109917
  H        -3.3242598526       12.7845989950       21.7356594443
  H        -2.5568461232       14.3419725893       21.6867027515
  C        -0.3228457958       13.6143320296       22.7306006976
  H        -1.9426009539       12.1052144457       22.9059513725
  H        -0.8772254270       11.9153388489       21.4917196732
  C         1.0003651881       12.9461790725       23.4174587277
  H         0.0931096511       14.2859941184       21.9447012161
  H        -0.8491232600       14.2439721919       23.5047566349
  C         1.4817930860       11.6211362338       22.7068570342
  C         0.6214715278       12.1664184914       24.6312043094
  C         2.1765317199       13.9578552604       23.6119815936
  C         1.3792130128       10.5105829804       23.5733515021
  C         1.9849350163       11.2653360842       21.4156201690
  C         0.8162874628       10.8715198507       24.7897548546
  C         0.1029771733       12.7423294759       25.7909693344
  H         2.2448280541       14.3484354686       22.5991110049
  H         1.7717938449       14.7659837172       24.2971504243
  C         3.5502341994       13.4413324545       24.1396386774
  S         1.9402588735        9.0604910948       22.8476201575
  C         2.1760331128        9.8837811925       21.3482322599
  H         2.0151399421       12.0038531321       20.6347448158
  C         0.4649620020       10.1857917443       25.8751879588
  H        -0.0294516607       13.8202377036       25.8032563737
  C        -0.2496029284       12.0620443363       26.9608897819
  H         4.0152609056       12.6687147727       23.5175595511
  H         3.5863693453       12.9342886682       25.1085125730
  C         4.5113967757       14.5960029257       24.4984155562
  C         2.4992414278        9.2269902898       20.0424504455
  C        -0.1597175098       10.7599586757       27.0027352981
  H         0.5171599432        9.1192275228       25.8679795857
  C        -0.6884954222       12.3847574417       28.2144325763
  H         5.3701760734       14.2042456612       25.0475640694
  H         4.1095727867       15.3054430831       25.1677374698
  C         5.0502346917       15.1662144806       23.1468114976
  C         2.5115768338        7.8308078884       19.7250721956
  C         2.7887148129       10.1333468795       18.8956365250
  C        -0.5023926789        9.9325953114       28.2329203882
  C        -0.8241292913       11.2411354604       28.9459090014
  S        -1.0961767883       13.8061342585       28.9592134001
  H         5.5954759872       16.0820435979       23.3860247169
  H         4.3246229303       15.5327985598       22.4804176285
  C         5.9945387314       14.1951067937       22.3666299584
  N         2.1395966131        6.8387493606       20.6126252208
  C         2.7142089920        7.3755059988       18.4211654749
  C         2.9845812562        9.6573912630       17.6140983646
  H         3.0040143634       11.1918377358       19.0919885420
  C         0.7902148450        9.3360496360       28.8603945127
  C        -1.6841068192        8.9713083950       28.0376443970
  C        -1.3056073106       11.5385364059       30.2152942338
  C        -1.3595061359       12.8303383306       30.4513913715
  H         6.9222326388       14.7847633368       22.2996227444
  H         6.2854631125       13.3772296085       22.9883372273
  C         5.2988469930       13.7672927750       21.1143381255
  S         2.2203001687        5.3846150660       19.8272086760
  N         2.6686885851        5.9758674444       18.3458252869
  C         2.9729045307        8.1996569830       17.2791948832
  H         3.2952336330       10.3553067041       16.8350724293
  H         1.2133573455        8.6467523260       28.1901585530
  H         0.4745053106        8.6950052860       29.6469089924
  C         1.9400060152       10.3312347600       29.3097512990
  H        -1.3546886152        8.2529945316       27.3356521673
  H        -1.8353828017        8.4835391630       29.0385052809
  C        -2.9937821660        9.5568137738       27.5376999607
  H        -1.4717382553       10.7763856063       30.9580012279
  C        -1.7896880999       13.4143030983       31.7189816955
  H         5.2581711377       14.6432786736       20.4992111889
  H         4.3253670412       13.4388459026       21.3854216925
  C         6.0312047295       12.6795805655       20.3905771531
  C         3.1401283355        7.6041637015       15.9697359456
  H         2.3235270581       10.8583845434       28.4454182558
  H         1.5684771067       11.0578864418       30.0046220190
  C         3.0023238215        9.6036045226       29.9825987125
  H        -2.7262702153       10.0669608244       26.6754053892
  H        -3.1931301734       10.3522366178       28.2641996361
  C        -4.1514786422        8.5309315619       27.3699786511
  C        -1.9378299381       14.8239690199       31.9101517275
  C        -2.1001646792       12.6346398329       32.9166961709
  H         6.3551141141       11.8744920678       21.0046277248
  H         5.3196880372       12.2921284496       19.6853802728
  C         7.3565577097       13.1283609833       19.7802919182
  H         3.0853422226        6.4643071473       15.9665697792
  C         3.4594793439        8.0620000734       14.7427055666
  H         3.5908804450        9.1730835913       29.1948467966
  H         2.6598041105        8.8377608023       30.7511645228
  C         3.9514181103       10.5008408738       30.7573199680
  H        -3.8405201634        7.8781459233       26.5824536676
  H        -4.2840290816        8.0402535519       28.3404413081
  C        -5.5291571434        9.0573379874       26.9122083604
  N        -1.7435097836       15.8241548914       30.9390160049
  C        -2.3169401512       15.3962614486       33.1449123624
  C        -2.3917637826       13.2028466633       34.1694847066
  H        -1.8785521869       11.5971395654       32.8669185201
  H         7.7356202843       12.1802283520       19.3583709064
  H         7.2786080109       13.8554539531       19.0352818297
  H         7.8583227193       13.4832308579       20.5510802961
  S         3.9557446626        9.6750183921       14.4247846912
  C         3.5488008621        7.1360787044       13.6100751932
  H         3.7269095949       11.5349187580       30.6099577340
  H         3.7714436344       10.2044828448       31.8149542337
  C         5.4396206372       10.1697740845       30.4894454295
  H        -5.8870884888        9.7491559980       27.6686645592
  H        -6.2778060424        8.2022432904       26.8557244878
  C        -5.5350072402        9.5980182407       25.4669945050
  S        -1.8509205520       17.2768414337       31.6473732164
  N        -2.2910517533       16.7760468491       33.1469479633
  C        -2.5789049237       14.6761284556       34.2949909508
  H        -2.2584196196       12.6048606066       35.0370377756
  C         4.2670089876        9.1557963559       12.8166779976
  N         4.0161126917        7.8621802921       12.5664380569
  O         3.4561547759        5.9086389125       13.6523002916
  H         6.0660875114       11.0490022213       30.8081476987
  H         5.7306031420       10.1267132457       29.3978907166
  C         5.9716751566        8.8472055145       31.1382763152
  H        -4.6080892916       10.0772363874       25.1671700083
  H        -5.6433911026        8.7321236797       24.7272899346
  C        -6.6547093694       10.6691403646       25.1830113574
  C        -2.6630437647       15.3497284425       35.5590178558
  S         4.7620629582       10.2918896131       11.5018862376
  C         4.1433908122        7.1416183751       11.3184743520
  H         6.8590131336        9.0861854026       31.6402390051
  H         5.3752650919        8.5803795161       31.9611189967
  C         6.1250121921        7.6509570149       30.2272748340
  H        -6.3523419099       11.1209894386       24.2115784742
  H        -6.6697335204       11.4953353799       25.8092789590
  C        -8.0329408967       10.1855765340       24.8793016708
  H        -2.1415026710       16.3124170872       35.7157667410
  C        -3.2778881900       14.9160332278       36.7437729186
  H         4.8886571412        7.6745160135       10.6286484870
  H         4.4583537373        6.1028007675       11.2957706072
  C         2.7008940784        7.1047316734       10.6570103972
  H         7.0787577646        7.6224193823       29.7515234087
  H         5.4321892283        7.7390084906       29.3745760373
  C         5.9835402586        6.3144229187       31.0591058995
  H        -8.3955318236       10.4290008545       23.8451244735
  H        -7.9639571569        9.0736295391       24.7849046689
  C        -9.0015989705       10.7625304443       25.9529034332
  S        -4.0056170943       13.3819084158       37.0017616112
  C        -3.3739913703       15.8552597789       37.9214405447
  H         2.3505578829        6.1058036163       10.5872446455
  H         1.8567020732        7.5191229520       11.2490071243
  H         2.6179955841        7.5120213171        9.6250795529
  H         5.3863586944        5.4693954812       30.5569887905
  H         5.3636934978        6.4248673322       32.0049280967
  H         6.9812717838        6.0332568817       31.4073937063
  H        -8.9610875108       11.8256529543       26.0437537371
  H        -8.5754129195       10.3861762809       26.9221916388
  H       -10.0437631541       10.5553120584       25.8910734806
  C        -4.5032388766       13.9750779248       38.5791496139
  N        -4.2182067872       15.2564794240       38.7853247798
  O        -2.9361890875       16.9758726350       38.0215507484
  S        -5.4486565743       12.9992720892       39.7833675228
  C        -4.4463979879       16.0085967468       40.0463246271
  H        -4.4312338277       17.0758940670       39.8021682512
  H        -5.4221128020       15.8414500631       40.4048032877
  C        -3.3523038267       15.7960259866       41.0724519738
  H        -3.1318650362       14.7838852879       41.2611371264
  H        -2.4193320550       16.2264932318       40.7568604400
  H        -3.7113280741       16.2011135153       42.0004627396
