352
i=
  H         1.7915924744        0.8827921796       12.4096983722
  C         2.8144416512        1.3805272126       12.5628286477
  H         3.5632122162        0.5858492143       12.3508906200
  C         2.9994268891        2.4081020066       11.3832969220
  C         2.9218622027        1.9467087915       13.9941371913
  C         4.4371741504        2.4240577685       10.7280252979
  H         2.6953516941        3.3665461144       11.6703213534
  H         2.2594063477        2.1993564515       10.6686484322
  H         2.6082208966        1.0636544758       14.6429913409
  H         2.1479713896        2.6859116112       14.1939142681
  H         3.8968108968        2.4085154087       14.1593639263
  C         4.9725394887        1.1013610789       10.1393069149
  H         4.3934035861        3.1178394919        9.8582077132
  H         5.2286044696        2.7364396432       11.4409503500
  C         5.7935946683        1.2980451317        8.8579788405
  H         4.2228649392        0.3688732421        9.9092952475
  H         5.6331055598        0.6223335147       10.8234771368
  C         6.9401776228        2.2369002348        8.9925519369
  H         5.2071611459        1.8538098641        8.1683163526
  H         6.0913345387        0.3506281421        8.4495043797
  C         8.1437466286        1.7491134695        9.7461705029
  H         7.1477121800        2.3984252359        7.9318404138
  H         6.5990944169        3.1423163147        9.3913458646
  C         9.3901461672        2.6985518568        9.6927690285
  H         8.3964497641        0.7284505369        9.3644685969
  H         7.9315332337        1.6291711891       10.7375984468
  C         8.9900475806        4.0293162345       10.2780299326
  C         9.5937761046        3.3598500462        8.3058522615
  C        10.6583554486        2.1079489418       10.4312338976
  C         9.0182060260        5.0859908230        9.3861442829
  C         8.4042645505        4.4001502751       11.5224937893
  C         9.4526194891        4.6979670602        8.1278113261
  C        10.0046733642        2.7505875494        7.1386062520
  H        10.3109689449        1.5278882216       11.2977766953
  H        11.1382293405        1.5276743357        9.6157979184
  C        11.7066783770        3.1202028412       10.7480772747
  S         8.4331773002        6.5551986079       10.0496249728
  C         8.0845943576        5.7740714274       11.5529575938
  H         8.2205244893        3.6255970759       12.2280205403
  C         9.7525624107        5.3174510958        6.9487475940
  H        10.3107892241        1.7178690463        7.2350921847
  C        10.3630375605        3.3598777707        5.9737404669
  H        11.3296714464        3.8783846161       11.3376756303
  H        12.1999981098        3.6601905111        9.8458758287
  C        12.8387644244        2.5714585059       11.5465134076
  C         7.5061438790        6.5169774011       12.7094950834
  C        10.3389527425        4.7006052384        5.8185969313
  H         9.6392190774        6.3922008945        6.9920019177
  C        10.8955255302        2.9564611587        4.7543202764
  H        13.4038244119        3.3482350055       11.9137216966
  H        13.4203708478        1.9169250642       10.9238154933
  C        12.3107475851        1.8742496973       12.8024605621
  C         7.6028574316        7.9231501560       12.9128143814
  C         7.0274566938        5.7541632022       13.9781517243
  C        10.7737489298        5.3510945608        4.5392796871
  C        11.0422684382        3.9866512034        3.8640407259
  S        11.3986027639        1.4751033822        4.0093986765
  H        11.8745826180        0.9676488009       12.5109805191
  H        13.2554220987        1.7008247471       13.3319041998
  C        11.4240984001        2.7165698460       13.7583110199
  N         7.8148050908        8.8507031254       11.8808723951
  C         7.3831365764        8.5302341701       14.1126285139
  C         6.7811488816        6.4276993404       15.1696691148
  H         6.9346364495        4.7011379677       13.9746250542
  C        12.0422430089        6.2385931316        4.5931773358
  C         9.5937637872        6.1505958688        3.8684729878
  C        11.5407807683        3.6256408550        2.5588108507
  C        11.6820558611        2.2413864315        2.4983218432
  H        10.3811347127        2.9090390100       13.5506233752
  H        11.8584261326        3.7338409103       13.9208711791
  C        11.5899829721        2.0766863181       15.0961987676
  S         7.7901332799       10.3417233161       12.4547116724
  N         7.4567221259        9.9598431993       14.0314929549
  C         6.9750527645        7.8569820107       15.2822864253
  H         6.3080000158        5.9149693185       15.9907174621
  H        11.8112708251        7.1234630261        5.1353324742
  H        12.2629453636        6.5205388819        3.5669776240
  C        13.2381629070        5.6279492068        5.3297672536
  H         9.0338480579        6.8514633997        4.5490743715
  H        10.1691997505        6.8550344315        3.2130761118
  C         8.5723992874        5.3042507388        3.0934213198
  H        11.5532432917        4.3995849479        1.7873281119
  C        12.0254830934        1.5221539927        1.2149485785
  H        10.7205166531        2.2176679846       15.6237992363
  H        11.8024764264        1.0424738810       14.9696468196
  C        12.7541908651        2.7489607537       15.8678263995
  C         6.8769754341        8.7067248193       16.4401999204
  H        12.9097600808        5.1135083603        6.1603921510
  H        13.6878525251        4.8066763131        4.7070022255
  C        14.3399971752        6.5652093131        5.7047657275
  H         8.0404073487        4.5452430323        3.5977201390
  H         9.0169641475        4.7366987758        2.2849404853
  C         7.6044000292        6.2866125365        2.3956641095
  C        12.0472220727        0.1121119175        1.1001504399
  C        12.2917016033        2.2613951123       -0.0454683124
  H        12.5571008221        3.8186544984       15.8474360656
  H        13.5786058897        2.5539763851       15.2234085201
  C        12.7770059755        2.3903429887       17.3626614643
  H         6.9708654118        9.7786194201       16.3494682781
  C         6.5527420774        8.4454074005       17.7965510263
  H        13.8956770978        7.4215179581        6.2166878047
  H        14.7652459182        6.8844519627        4.7345636143
  C        15.3934103159        6.1145173395        6.6446304044
  H         7.1538521006        7.0874600907        3.0690694437
  H         8.2235674478        6.9680606148        1.7924547713
  C         6.4874939196        5.6949756458        1.5189851213
  N        11.8171248745       -0.8202213885        2.1236643393
  C        12.3982177141       -0.4779999742       -0.1114284651
  C        12.6423316465        1.6115323857       -1.2325180196
  H        12.3384201740        3.3146925556       -0.0033777337
  H        12.1258052244        3.1321905208       17.9739957977
  H        13.8111678567        2.4739478955       17.6263711028
  H        12.3797679805        1.3507817110       17.4720298409
  S         6.2257126745        6.9111314986       18.4688268802
  C         6.4968414564        9.5441710806       18.7487358182
  H        15.8355802526        6.9929759749        7.1025904565
  H        14.9228955223        5.5707453302        7.4821278405
  C        16.4718071567        5.3735090139        5.8577083693
  H         6.5416095106        4.5923985184        1.4598302604
  H         6.5981154601        6.0540335094        0.4409014679
  C         5.1170524862        5.9643861432        2.1347779899
  S        11.9164810877       -2.3254438443        1.5044264915
  N        12.2931637753       -1.8383885764       -0.0407511191
  C        12.7344832076        0.1314251592       -1.3673091268
  H        12.9708838190        2.2143151120       -2.1237207528
  C         6.1742646304        7.6579492186       20.0855199917
  N         6.3173929943        8.9742172533       20.0220792666
  O         6.6727025365       10.7421292777       18.4792566928
  H        15.9351203777        4.4941076880        5.3608562656
  H        16.9450054189        6.0512337158        5.0957979010
  C        17.5046709509        4.7433034484        6.8036982613
  H         4.3522907758        5.4921397184        1.4713432136
  H         5.0821226264        5.5837274964        3.1207570189
  C         4.6993367378        7.4215083492        2.2234230770
  C        12.9722841502       -0.6405707425       -2.5559924829
  S         5.8551493431        6.9105946342       21.5395016220
  C         6.4186972749        9.7952577465       21.2172010860
  H        16.9327783569        4.5469984129        7.6919088172
  H        17.8048095532        3.7767823727        6.4235927818
  C        18.6749573517        5.6476365945        7.0846483705
  H         4.9933961250        7.8020871926        3.1411981864
  H         3.6632365054        7.4755672247        2.3089173435
  C         5.0865314967        8.1880429604        0.9875726871
  H        12.5502763371       -1.6438740303       -2.4625316858
  C        13.1958430568       -0.2656690907       -3.8343428028
  H         5.7652700481        9.5089308447       21.9723059296
  H         6.1048195313       10.7839134743       20.9068753977
  C         7.8490537946        9.6735886721       21.8084721297
  H        19.2179775497        5.2411423735        7.9508221006
  H        18.3978268664        6.6271714248        7.4952472676
  C        19.6164891318        5.9263189227        5.8531576217
  H         6.1583850271        8.4538581681        1.0432681825
  H         4.8008227215        7.6280756663        0.1085330776
  C         4.4361303734        9.5767084183        1.0641316935
  S        13.6293239545        1.2629056135       -4.4850635954
  C        13.2143668661       -1.3197959532       -4.8877716050
  H         7.7824681283        9.1389939746       22.8009773582
  H         8.3079492165       10.6442332097       21.8608187269
  H         8.3994005603        9.0750124155       21.0046422620
  H        20.6132383488        5.4106616071        5.8958264557
  H        19.1566146126        5.3602628659        5.0761019272
  H        19.5772702243        6.8831151520        5.5166997580
  H         4.5166586484        9.9492618889        2.1271965075
  H         4.7672559056       10.3448824104        0.4195299728
  H         3.3699174468        9.4695801582        0.8741620234
  C        14.0404751043        0.4774266724       -5.9518228995
  N        13.7715050987       -0.8456555297       -6.0178092343
  O        12.9480199391       -2.4747339182       -4.8310225341
  S        14.6497671916        1.4208161366       -7.2886353617
  C        14.0618503106       -1.6419178884       -7.2969673154
  H        14.2228630115       -2.6335038933       -6.9359397942
  H        14.9518610100       -1.2984192627       -7.8134369250
  C        12.8954590028       -1.5228375401       -8.2442736977
  H        12.4578051752       -0.5303177257       -8.1301890375
  H        12.1236890803       -2.3111718050       -8.1087766245
  H        13.2217392480       -1.6274440656       -9.2811180881
  H        -3.2004421261       13.0972700919       16.3261553935
  C        -2.1770525586       13.0251923719       16.1021898455
  H        -1.8246956471       11.9464116808       16.2093879891
  C        -1.4955908660       13.8278426765       17.2906777320
  C        -1.9626065388       13.6253954565       14.6976894644
  C        -2.1950574879       13.7668900506       18.6232744800
  H        -0.5214407082       13.3428242676       17.4306922408
  H        -1.3769927912       14.9362996836       17.0744026486
  H        -1.1121909141       13.1824940815       14.1497172529
  H        -2.8315261761       13.5248061603       14.1300002535
  H        -1.7406834818       14.6902620588       14.7391658318
  C        -1.8388671275       12.5467557228       19.4371033895
  H        -3.2682025705       13.8235851047       18.7352360878
  H        -1.7967199950       14.6069919379       19.1196821841
  C        -2.3849577328       12.7899604924       20.8387184756
  H        -2.4486161832       11.7977773575       18.9716317380
  H        -0.7840133070       12.2090118357       19.4092568300
  C        -1.3925681453       12.3816369769       21.9236676991
  H        -3.2528052247       12.1297065217       20.9581596694
  H        -2.6552279905       13.8786390526       20.9795983972
  C        -0.1985705055       13.3703390078       21.9617706882
  H        -1.9460395284       12.5880501315       22.8533679354
  H        -1.1481349956       11.3446277865       21.8178050924
  C         0.9412240418       12.7711432421       22.8084744276
  H         0.1890822569       13.5478577063       20.9530617076
  H        -0.5463472488       14.3656686248       22.3367326501
  C         1.3780188248       11.4373301729       22.2575563973
  C         0.4705476440       12.0854267083       24.1084517283
  C         1.9246623924       13.8457787641       23.1118655671
  C         1.2062968489       10.3668240907       23.0702801157
  C         1.9311608371       11.0244199571       21.0518248150
  C         0.6171305266       10.7714359278       24.3030861856
  C        -0.0287006086       12.7066079322       25.2385768025
  H         2.1637052523       14.2933172178       22.1698872992
  H         1.5509280956       14.7261188398       23.6964769817
  C         3.2042561996       13.2223890735       23.7022641119
  S         1.6054797622        8.8225544996       22.4544938496
  C         2.1776047644        9.6546397679       20.9860100683
  H         2.0195571930       11.8491670335       20.2267039570
  C         0.2929780869       10.1931096694       25.4874420579
  H        -0.2260812945       13.7658754626       25.2459182748
  C        -0.2360853114       12.1427183477       26.4618478295
  H         3.6628961488       12.4803878850       23.0712639964
  H         3.0275717705       12.7463758988       24.6276787478
  C         4.2349500862       14.2597950820       24.0418181789
  C         2.5923023245        9.0441961088       19.7049799559
  C        -0.1570153409       10.7741036891       26.6536989044
  H         0.3694060907        9.1252039907       25.5815193158
  C        -0.5900666919       12.5774649191       27.7371278362
  H         4.9905649444       13.9889401117       24.7462547213
  H         3.8556409518       15.1094023033       24.5846641672
  C         5.0422267708       14.7256094603       22.8263945243
  C         2.5984864377        7.6431414511       19.4976190391
  C         2.8896559849        9.9049748519       18.5083084524
  C        -0.4251023969       10.1850145939       27.9683355211
  C        -0.6476553400       11.5020260605       28.6048516210
  S        -0.7613336711       14.0779988289       28.4064352739
  H         5.5186525658       15.6474904281       23.1797885992
  H         4.3707154848       15.0321572205       22.0617842386
  C         6.0385072881       13.6025754455       22.2375068631
  N         2.2752789364        6.6856968036       20.5174821839
  C         2.8450989983        7.0543736290       18.2430331175
  C         3.3359231432        9.3030978005       17.3754047192
  H         2.8995854451       11.0053792799       18.4747298451
  C         0.8335439752        9.5169257117       28.5973600125
  C        -1.6225864779        9.2119381327       27.9247678115
  C        -1.0013925947       11.9631072498       29.8766107251
  C        -1.1483752463       13.3095912893       29.8829937659
  H         6.9590860935       13.7726232912       22.8061214697
  H         5.7008112686       12.5812917408       22.5143407960
  C         6.3745074127       13.8424126508       20.7699352547
  S         2.2725100944        5.2026586824       19.7790921661
  N         2.5775678029        5.7284270236       18.2869158316
  C         3.2087062691        7.8491901968       17.1327399083
  H         3.6222809900        9.9430873715       16.5751646768
  H         1.1183083897        8.6441192034       28.0088352123
  H         0.5087119408        9.1497410785       29.5032917318
  C         2.0150818952       10.4047683361       28.9058882603
  H        -1.4111535205        8.4030050716       27.2890745434
  H        -1.7535323441        8.8643300500       28.9449196294
  C        -2.9359660321        9.8682447963       27.5880164430
  H        -0.9983865643       11.2856820990       30.7156200181
  C        -1.5109694649       14.1896134821       31.0483095846
  H         6.1314965437       14.8800866006       20.4419161669
  H         5.6469771881       13.2778737576       20.1999945859
  C         7.8630923528       13.5857418277       20.3691676837
  C         3.5842831812        7.2261765154       15.9197618058
  H         2.3955649165       10.7623885732       27.9596938182
  H         1.8407187675       11.3104972423       29.4051493749
  C         2.9740610273        9.6984180199       29.7685590761
  H        -2.8109723542       10.4976184999       26.7665790053
  H        -3.0100483937       10.4698961240       28.5088234671
  C        -4.1816671957        8.9547131353       27.4766988963
  C        -1.5218575724       15.6082690602       31.1019648892
  C        -1.9495134408       13.5480520560       32.2804252432
  H         8.4589634197       14.2343677690       20.9948750554
  H         8.0121285183       12.5876390239       20.6923945313
  C         8.0865732790       13.8411379485       18.8673608514
  H         3.6703578688        6.1505470394       16.0152900567
  C         3.7528309080        7.7050064401       14.6416212008
  H         3.0340097916        8.5970263388       29.4255495123
  H         2.5646344773        9.6596683021       30.7845442728
  C         4.4567347016       10.2962277974       29.8827304385
  H        -4.0832930603        8.4903822364       26.5338846464
  H        -4.2065757371        8.1771566614       28.1805361674
  C        -5.4413126517        9.7811873209       27.4659916071
  N        -1.1842367303       16.4489254028       30.0468125531
  C        -1.9020349270       16.2931278603       32.2371535797
  C        -2.2256676754       14.2596542799       33.4761683075
  H        -2.0226105463       12.4383748499       32.3807961051
  H         7.0811469595       14.0542077156       18.4967690015
  H         8.6987696128       14.6642025892       18.7794385953
  H         8.6193171093       13.0796733382       18.4091449094
  S         4.0322041306        9.3286306445       14.0784002456
  C         3.7989653091        6.6671554718       13.5706999571
  H         4.6867856307       10.8744397759       28.9865927209
  H         4.4692520547       10.8848736425       30.7499414109
  C         5.5450192202        9.2383284950       30.0318645233
  H        -5.2113563421       10.8790147676       27.3524256922
  H        -5.9074769306        9.6759078998       28.4222504568
  C        -6.3713243811        9.4948163084       26.2497564245
  S        -1.4753976015       17.9835931275       30.5572979433
  N        -1.9558813098       17.6541299184       32.0720999179
  C        -2.1752785918       15.7165203488       33.4805988970
  H        -2.6583059355       13.6686887502       34.2382197635
  C         4.2840586525        8.6043963591       12.5210021506
  N         4.1794750662        7.2536387497       12.3844297793
  O         3.7697060654        5.4104137035       13.7304536740
  H         6.4894127540        9.7407089281       29.8061383279
  H         5.4437206553        8.5658231324       29.1690023670
  C         5.6754760478        8.5692608561       31.4147964391
  H        -5.7638726456        9.5999567662       25.3466781142
  H        -6.7323157903        8.4099948959       26.3214107941
  C        -7.5305071974       10.4543898799       26.1203050920
  C        -2.5801953398       16.6644320362       34.5032701541
  S         4.6364417820        9.5489777511       11.0622834542
  C         4.2113089479        6.4485236851       11.1224550884
  H         6.6367199836        8.8211862188       31.8662775095
  H         4.8792508301        8.9300958983       32.0578729057
  C         5.8823162096        7.0411921943       31.3233629876
  H        -7.0838722395       11.3859015477       25.7185246834
  H        -7.9555042882       10.6928856112       27.1218201009
  C        -8.6343875202        9.9353114219       25.2015182680
  H        -2.4320561159       17.7242235355       34.2892125237
  C        -2.8322719193       16.4051335272       35.8372377460
  H         4.7741844889        7.0014075319       10.3130159623
  H         4.8015182255        5.5702647494       11.2411811129
  C         2.7810196724        6.2421013458       10.6277921604
  H         5.0329377362        6.6711515095       30.8058342746
  H         5.7726129775        6.5171060705       32.2482303023
  C         7.2271840924        6.6390205670       30.6981618340
  H        -8.7081481712       10.6021184847       24.3378261595
  H        -8.2683614574        9.0789927266       24.6774500700
  C       -10.0646712098        9.6774579912       25.8995762536
  S        -2.9985510375       14.9338485373       36.6267821536
  C        -3.0506856783       17.6090333634       36.6267402836
  H         2.6986026162        5.7860277025        9.6164862142
  H         2.1716108504        5.6571808085       11.3394617351
  H         2.3296338596        7.2370970805       10.5198318003
  H         8.0222331798        7.3028235752       30.7264308836
  H         7.0117607761        6.4857152976       29.6091609589
  H         7.5344809879        5.6192844011       31.1012906099
  H       -10.6318532798       10.6162251148       26.0821623365
  H        -9.8580272088        9.1038068212       26.8341807375
  H       -10.7134451387        9.0779951878       25.3222206712
  C        -3.4742532685       15.8407724720       38.0458734733
  N        -3.3802586234       17.2123710561       37.9065659523
  O        -2.9099318551       18.7455486936       36.2520945362
  S        -3.9527107684       15.1014712590       39.6226138414
  C        -3.6542593824       18.1258843346       38.9752463369
  H        -3.9686593310       19.1725813673       38.6230969083
  H        -4.4622809936       17.6202164465       39.4508311854
  C        -2.3742431825       18.2801831362       39.7572847151
  H        -2.2033374891       19.2673133655       40.1940961493
  H        -2.3471742633       17.4783119844       40.4926203807
  H        -1.5137508017       18.1533370332       39.1432364688
