352
i=
  H         2.8835266681        2.6960010277       13.4457500162
  C         3.4527920087        1.9726145701       12.7744821229
  H         3.2709947296        0.9373155102       13.1021317753
  C         2.8314800884        2.1085590278       11.4035694563
  C         4.9870183988        2.0873445887       12.9419743228
  C         3.7608879136        2.2542902107       10.2108438847
  H         2.1747138449        2.9999591255       11.5689938652
  H         2.0304677605        1.3330782452       11.2702144416
  H         5.3931509850        1.1342625336       12.5010049956
  H         5.1629007767        2.1118806363       13.9820582539
  H         5.4158531381        2.9410730882       12.4111139386
  C         4.4160345130        0.9448338917        9.5724638423
  H         3.1486481377        2.6615604472        9.3423927757
  H         4.4513729827        3.0577217252       10.3949773334
  C         5.2288677698        1.1624013136        8.3180947941
  H         3.6462116703        0.2775234398        9.3065342574
  H         4.9734499078        0.5363168058       10.3855555052
  C         6.4056390661        2.1450312646        8.3784605365
  H         4.5326607457        1.5846935699        7.5558080376
  H         5.5999111134        0.1824658192        7.9249685983
  C         7.5807372502        1.4341311704        9.0990564270
  H         6.8182196644        2.3664897516        7.4266564471
  H         6.1512847765        3.0337338611        8.9492863084
  C         8.8659210778        2.2906050201        9.3507407086
  H         7.8831006730        0.6400609032        8.4362145210
  H         7.3149843876        0.8952029726        9.9879879320
  C         8.5379493861        3.6291029863       10.0392770902
  C         9.3257852921        2.9570512883        8.1220156929
  C        10.0592091134        1.5018936285        9.8561750386
  C         8.8834067379        4.7493619816        9.2828034968
  C         7.9407285675        3.9960987291       11.2473180787
  C         9.4192976237        4.2968980594        8.0543800520
  C         9.7606751025        2.3015775702        6.9399044912
  H         9.6936753635        0.9234838583       10.7474698467
  H        10.3916315824        0.8015928852        9.1212417782
  C        11.2342798783        2.3350508638       10.1920278558
  S         8.4242919820        6.2634589363       10.0095564890
  C         7.8674148771        5.3556646830       11.4031907344
  H         7.5873427150        3.2019800898       11.9175142462
  C         9.8474735261        5.0004830904        6.9685991083
  H         9.7741156395        1.1688896546        6.7969137830
  C        10.2833486318        2.9566470092        5.8655306388
  H        11.0033807668        3.3766314866       10.5008063338
  H        11.9613391762        2.4449276492        9.3935392521
  C        11.9772425589        1.8621125000       11.4495425611
  C         7.5498549214        6.0697406556       12.7110821299
  C        10.3181244210        4.3160546598        5.8082987119
  H         9.8881298034        6.0482541470        6.8902556574
  C        10.8494164695        2.5548187716        4.6710154576
  H        13.0310254519        2.3288504662       11.4852826652
  H        12.1000845863        0.8208965770       11.3970808288
  C        11.2645030048        2.3013927102       12.7962583444
  C         7.5155775936        7.4224288809       12.9550858585
  C         7.2700859336        5.2076270381       13.8884658264
  C        10.6856797042        4.9702909282        4.5178456589
  C        11.0514157985        3.6329147279        3.8432732256
  S        11.0662472131        0.9905458003        4.0050297277
  H        10.6721208956        3.2078919845       12.6635913789
  H        10.6590773980        1.4632022494       13.1570218098
  C        12.2619255653        2.5171312449       13.8908948884
  N         7.7304416049        8.4242270159       11.9565645435
  C         7.3496640028        7.9762375233       14.2140512117
  C         7.1037304901        5.7202527068       15.1474297303
  H         7.0184666922        4.1861468307       13.7260390012
  C        12.0683136356        5.7286286834        4.6921200009
  C         9.6100427498        5.7475657805        3.7854389245
  C        11.5670140893        3.1665195632        2.6150063632
  C        11.5097236605        1.7731836250        2.5521557270
  H        12.0991855437        3.6052298928       14.2022229157
  H        13.3183826784        2.5300728489       13.6001461636
  C        12.0469667827        1.4708191259       14.9762504521
  S         7.8858062906        9.8361943385       12.7024883669
  N         7.5341683503        9.3761011252       14.2585380783
  C         7.1031912342        7.1722746684       15.3618750769
  H         7.0395839562        5.0351727658       15.8994240603
  H        11.8053977398        6.7220630612        5.1695560995
  H        12.5045990660        5.9967468795        3.7013988037
  C        13.0445853057        5.0078274544        5.5230666411
  H         9.4204562789        6.6280585951        4.3709805092
  H        10.0293614085        6.2658445224        2.9070947306
  C         8.3518787912        4.9125111224        3.3262035466
  H        11.8229998688        3.8229783281        1.7794315712
  C        11.8000410103        1.0156378715        1.2457950924
  H        11.0436216134        1.5586712564       15.4454591326
  H        12.1843118973        0.4412325633       14.5117024445
  C        13.1191540111        1.6109404450       16.1088086747
  C         6.9360152936        7.9262112528       16.6018059450
  H        12.6737765059        4.7956911990        6.5286532388
  H        13.2885778981        4.0332634196        4.9909625613
  C        14.3559373348        5.7157634960        5.5857634417
  H         7.8942238154        4.4448360646        4.2389529090
  H         8.8020591972        4.0551555360        2.8857760520
  C         7.3503340308        5.5000502388        2.2892989101
  C        11.8246258569       -0.3958232008        1.1016233312
  C        11.9132484899        1.8092142053        0.0348467491
  H        13.9843338779        2.1540419388       15.8061101057
  H        13.5967755461        0.6841231187       16.5137538979
  C        12.6852927813        2.4726291558       17.2566749466
  H         6.9912467061        8.9932993174       16.5611337229
  C         6.5800059094        7.5360264416       17.8784722743
  H        14.2979702421        6.4179371656        6.3050881957
  H        14.6280236165        6.2280419523        4.6779230397
  C        15.3966291578        4.6983340183        5.7482634218
  H         6.9231080412        6.3809340163        2.8076748263
  H         7.7372259154        5.8655922210        1.3140461252
  C         6.1626986783        4.5245287606        2.0448295448
  N        11.6476190539       -1.2639407402        2.1335732245
  C        12.0527792865       -0.9759942118       -0.1329651990
  C        12.2484056018        1.2222069201       -1.1756740175
  H        11.8982987076        2.8533612515        0.0932915924
  H        12.0692880868        3.2324857199       16.8732175783
  H        13.5550056779        3.1288077305       17.5596476956
  H        12.1891218632        1.8865315321       17.9736630237
  S         6.2610435278        5.9162931299       18.4517505466
  C         6.5419761400        8.6015686261       18.9053921536
  H        15.2813891265        4.1469979819        6.7237889199
  H        15.3373728467        4.0452662749        4.8502913741
  C        16.7826374915        5.3814917767        5.6655566013
  H         6.0227467541        3.9599261184        2.9936727320
  H         6.5121815842        3.7552765495        1.3330878077
  C         4.7934381373        5.1475833939        1.5341576886
  S        11.7516058687       -2.7795926132        1.5530493284
  N        12.0976839150       -2.3538217344       -0.0143786908
  C        12.4450597863       -0.2882211644       -1.2414972763
  H        12.2608835206        1.7254725258       -2.0931737844
  C         6.1718231199        6.7637781765       20.0492456198
  N         6.2717240249        8.0679965699       20.0898154853
  O         6.7148110939        9.7730886662       18.6791880680
  H        17.4437839247        4.8534572252        4.9358303279
  H        16.6802014965        6.4124862675        5.2526058936
  C        17.4876757571        5.2959336009        7.0488712012
  H         4.9273216072        5.4750144743        0.4971626878
  H         4.2099971164        4.2469467644        1.5428176151
  C         4.1133856736        6.1252971362        2.4944588302
  C        12.7780682688       -1.0159345582       -2.4122477187
  S         5.6514895708        6.0375177922       21.5472610654
  C         6.2915081853        8.8479718231       21.3456783438
  H        16.9235208546        5.8308366959        7.7655561180
  H        17.5443935846        4.1946553898        7.3044754373
  C        18.9328454239        5.8178563832        7.0864145132
  H         4.4597035201        5.9001585940        3.4974797880
  H         3.0063540969        5.9349836462        2.4298300553
  C         4.2377693445        7.6648152380        2.1106416408
  H        12.8195634101       -2.0889921331       -2.3575217865
  C        13.3105394014       -0.6593847966       -3.6764092413
  H         5.4691171263        8.6033924221       22.0492843803
  H         6.1674663378        9.9330686364       21.1661090800
  C         7.6566688491        8.6376792783       22.0381058154
  H        19.3337237628        5.3298875953        7.9711537454
  H        18.9207702552        6.9734686739        7.0605385600
  C        19.7862956169        5.5254352336        5.9285227114
  H         5.2914758672        7.9586947928        2.1182688203
  H         4.0604446510        7.6846533903        0.9915699152
  C         3.4569596433        8.5823636669        2.9882278909
  S        13.6632352693        0.8936429952       -4.1598123658
  C        13.6218036422       -1.6783809943       -4.6872723554
  H         7.4436448580        8.5216055013       23.1171010988
  H         8.1021067670        9.6294504645       21.9883812865
  H         8.3230410278        7.9262229488       21.5716961418
  H        19.6062867154        4.5692342736        5.5360679093
  H        19.9695015079        6.3042043657        5.2027132797
  H        20.7343778609        5.3419650065        6.3235897043
  H         3.5314970592        9.6180355381        2.6167186188
  H         2.4177061447        8.3783695932        2.9634128441
  H         3.5800425907        8.4660170822        4.0797846483
  C        14.0933196539        0.2289837723       -5.7045592005
  N        14.1426229429       -1.1238015612       -5.7938462065
  O        13.3678412603       -2.8789559925       -4.5812179719
  S        14.5244713048        1.1854079915       -7.1161634107
  C        14.1664580908       -1.7858276112       -7.0679155435
  H        14.4970035280       -2.8151223567       -6.8748505250
  H        14.8022396555       -1.4106607851       -7.8622413083
  C        12.8582426636       -1.7000762480       -7.8362922983
  H        12.0868675004       -2.2501263703       -7.2417950015
  H        12.8790248331       -2.3338854858       -8.7641705960
  H        12.4181155211       -0.6784052737       -8.0503166459
  H        -2.4455949549       14.3659826550       15.4826449360
  C        -3.1264948784       13.9931291566       16.2690161220
  H        -3.8883555396       14.7562363679       16.4186476507
  C        -2.2901380521       13.8362618286       17.5452771725
  C        -3.6285987834       12.6632269228       15.5897852821
  C        -2.9742562536       13.0954039054       18.7254236833
  H        -1.3196187794       13.3027308062       17.3770891349
  H        -1.9628509724       14.8238604892       17.8118802273
  H        -4.5049177916       12.1987637886       16.1077160508
  H        -3.7883339801       12.9848074673       14.5902591787
  H        -2.8301317654       11.9225549793       15.4873699249
  C        -1.9546276099       12.6797895456       19.7878409734
  H        -3.3558717189       12.1556217723       18.3085966088
  H        -3.7787682666       13.7236324328       19.0517936613
  C        -2.3745510383       12.7662363828       21.2642209143
  H        -1.5513808621       11.6903751307       19.5323312045
  H        -1.0973758264       13.3930635879       19.6593808776
  C        -1.3295811039       12.2124995293       22.2166803851
  H        -3.3852183262       12.3014377182       21.4185048371
  H        -2.5049510896       13.7690135896       21.5117051212
  C        -0.1614098135       13.2615725734       22.5849958987
  H        -1.9023269666       12.0342796544       23.0909796168
  H        -0.9303885533       11.2002995885       22.0162140945
  C         1.0651453150       12.6427373160       23.3064619645
  H         0.1200329942       13.8668376385       21.6985594651
  H        -0.5685960006       14.0333615808       23.2303948628
  C         1.4533763418       11.2875645009       22.7068415076
  C         0.7134244297       11.9179141179       24.6179480893
  C         2.3685318807       13.5578158464       23.3664906748
  C         1.2796346979       10.1560034836       23.4672398401
  C         1.9865166672       10.9365920117       21.4484163492
  C         0.8769294431       10.5405265945       24.7165120188
  C         0.1845839509       12.4869469560       25.7988219500
  H         2.5342540784       14.1298693798       22.4713225718
  H         2.2516745250       14.2795440044       24.1307303972
  C         3.6459970853       12.8497073307       23.7055281146
  S         1.8007362252        8.6414229536       22.7178021647
  C         2.2280892241        9.5897952353       21.3032791553
  H         2.2800357572       11.6940311247       20.7926752596
  C         0.5543432243        9.8928237583       25.8717541875
  H         0.1399832683       13.5684896326       25.8548058125
  C        -0.0969825728       11.8307058711       26.9324254789
  H         3.9428957041       12.3228519632       22.7642735035
  H         3.4425450966       12.1951108261       24.6078301464
  C         4.6818828783       13.8859163510       24.0587227096
  C         2.5935501140        8.9973324268       19.9858818708
  C         0.0292606588       10.4961927449       27.0554925662
  H         0.6083257412        8.7790813320       25.9722431178
  C        -0.4570932040       12.2461981680       28.2264215826
  H         5.2921939636       13.3712687213       24.8154659043
  H         4.2346229872       14.5884031310       24.7224352859
  C         5.4046137099       14.6072757562       22.9336120190
  C         2.6962987967        7.6276834686       19.7237368905
  C         2.9268033243        9.9077811935       18.8287952305
  C        -0.3880968995        9.8401331357       28.2949838918
  C        -0.7048164147       11.1966503029       29.0286361320
  S        -0.6166152542       13.7977630315       29.1026080267
  H         5.7520168564       15.5820783355       23.2948569100
  H         4.6660909556       14.9603828186       22.1482837327
  C         6.6492817707       13.8582641528       22.4286431082
  N         2.4966617635        6.6240472784       20.6683065973
  C         2.9742506257        7.1337135650       18.5114415134
  C         3.2920496891        9.3396467530       17.5621265752
  H         3.0508940703       10.9345599304       18.9265095478
  C         0.7917569103        9.1494672293       29.2006732209
  C        -1.5390059709        8.8806574255       28.0294036705
  C        -1.2800443751       11.5843584496       30.2500489796
  C        -1.2703543364       12.9338970116       30.4583555325
  H         7.4477645988       14.5956059060       22.4110464710
  H         6.8989967619       12.9722017772       22.9959463645
  C         6.3876711104       13.4005736094       20.9045204664
  S         2.6686153178        5.1714852625       19.9286513091
  N         3.0527599909        5.7754016171       18.4998985781
  C         3.2287308437        7.8814022031       17.3941659294
  H         3.5799695714       10.0491984437       16.7991935871
  H         1.1009899393        8.1533651587       28.8363087551
  H         0.3534838833        8.9814357746       30.1918151142
  C         1.9511313157       10.0572642721       29.4472276425
  H        -1.1789076231        8.1042730372       27.3370262295
  H        -1.6767289564        8.3144711546       28.9985207264
  C        -2.8376783250        9.5549214117       27.5146937300
  H        -1.6679544790       10.8569959973       30.9366095986
  C        -1.6961975877       13.6122277762       31.7288816831
  H         6.0417791309       14.2377882248       20.3585978601
  H         5.5490929921       12.7115775301       20.9391874588
  C         7.6336379913       12.8423258647       20.1999882899
  C         3.4706313774        7.2150371848       16.1611750285
  H         2.3885444158       10.3436950097       28.4386143220
  H         1.5969735890       10.9531827724       29.9557162349
  C         3.0229620788        9.3416088077       30.1882109803
  H        -2.5865461073        9.9793401632       26.5713166524
  H        -3.1234416348       10.4183579158       28.1894221765
  C        -4.0625345340        8.6480485789       27.3973625404
  C        -1.7287707092       14.9732570830       32.0211373022
  C        -2.2382347294       12.7574771618       32.8529651357
  H         8.4787448243       13.3674486867       20.4118166827
  H         7.8650567040       11.7966475499       20.5323088057
  C         7.3394656737       12.8276472974       18.6769217080
  H         3.4537968465        6.1751029602       16.1805291267
  C         3.8640028616        7.5175940557       14.8999367146
  H         3.4411381590        8.5168273176       29.6713470212
  H         2.6060423260        8.9252148299       31.1130922002
  C         4.1812633393       10.2814435368       30.5044756284
  H        -3.9799799652        7.9232531265       26.5703219720
  H        -4.1071265051        7.9636306921       28.2532326994
  C        -5.4142087507        9.4369007887       27.3566233658
  N        -1.3887195931       15.9523673983       31.0723712169
  C        -1.9949982077       15.5182349318       33.2601657963
  C        -2.5621367572       13.3425471718       34.0696789453
  H        -2.1572134882       11.7116352418       32.8577334862
  H         7.5833956826       13.7944532375       18.1985108160
  H         7.8756123150       11.9870384282       18.1591321377
  H         6.3349295760       12.5672962971       18.4207141584
  S         4.2703693195        9.0667804609       14.3778795138
  C         3.9763858287        6.4156790105       13.9082644366
  H         4.0645464216       11.1796943034       29.9413682018
  H         4.0861341143       10.5952306337       31.5177697129
  C         5.5807642516        9.5769445687       30.2605982234
  H        -5.3398142643       10.3200307647       28.0238790287
  H        -6.2082815993        8.7783109015       27.7260460699
  C        -5.7596289890        9.9740327459       25.9015318508
  S        -1.3115296222       17.3545658080       31.7550267061
  N        -1.7388788389       16.8973947301       33.2638789703
  C        -2.3550778399       14.8112807502       34.3946647924
  H        -2.8253251017       12.6206268266       34.8039938022
  C         4.4515908672        8.3210404892       12.7834719424
  N         4.3573940999        6.9967926144       12.7588376300
  O         3.8348579808        5.2062407714       14.0895338906
  H         6.3050792258       10.3844788365       30.4542804273
  H         5.8653375547        9.3672757004       29.2515825587
  C         5.8895351649        8.3717190928       31.0881190701
  H        -5.2338466565       10.9484491544       25.8246291079
  H        -5.3812177603        9.2955140619       25.1758497377
  C        -7.2755686159       10.2368866465       25.5873179155
  C        -2.3873661773       15.4784620474       35.6174920171
  S         4.6803068068        9.1586308382       11.2236230395
  C         4.4696064707        6.2591970552       11.4611845691
  H         6.6258055375        8.7000082574       31.8269967080
  H         5.0573628108        8.0109626500       31.6420591052
  C         6.5062818019        7.2636054644       30.3290215975
  H        -7.2830291778       10.5476249278       24.5326752801
  H        -7.6598422854       11.1118444303       26.2186949160
  C        -8.2884987400        9.0679736007       25.7329232266
  H        -1.9750140417       16.4563151839       35.5730604811
  C        -3.0486601788       15.2162256648       36.7420281406
  H         5.2917133539        6.7439221046       10.9546597040
  H         4.7977133842        5.2498505517       11.5815024320
  C         3.1772477964        6.2741375814       10.6143756099
  H         7.4980181861        7.6988903911       29.9832004837
  H         5.9180714363        7.0141737729       29.4063836155
  C         6.6507229725        5.9672171975       31.0522066797
  H        -7.7805456869        8.2200525727       25.2578435587
  H        -8.5204808969        8.9099553793       26.7896050857
  C        -9.5865298185        9.1448753970       24.8735123299
  S        -3.7400323405       13.6925721344       37.1519358626
  C        -3.2145136197       16.2752415982       37.7970004863
  H         3.2625350426        6.7758368442        9.6406109160
  H         2.8204056287        5.2235917946       10.5202793640
  H         2.3541727273        6.7736700086       11.0796192763
  H         6.4623144399        6.0861566411       32.1156962834
  H         7.6941079302        5.6163801093       31.1233567339
  H         6.0443926721        5.1459581638       30.6400627885
  H        -9.9257680411       10.1027092964       24.5543993821
  H       -10.4532810928        8.6984655413       25.4795191245
  H        -9.4745386721        8.6192143434       23.8837593160
  C        -4.0642795799       14.4111504120       38.7031705688
  N        -3.7679866709       15.7045200220       38.8806031091
  O        -2.7776032071       17.3999368763       37.6722034560
  S        -4.9550487617       13.5393051510       39.8578727521
  C        -4.1015262947       16.4775128778       40.0678332549
  H        -4.6214483935       17.4406068393       39.8038949133
  H        -4.6954979387       15.8798268150       40.7786268046
  C        -2.8391002531       16.9234950172       40.8315580468
  H        -1.9801598783       17.3612266353       40.2300288133
  H        -3.0613274931       17.7379730671       41.4933116474
  H        -2.3894141881       16.0851518760       41.4484973392
