352
i=
  H         3.1529132395        3.5672376244       12.5355604046
  C         3.0470111974        2.4894043072       12.6168793590
  H         2.3613190041        2.2873767578       13.3012703290
  C         2.5640197286        1.8549268645       11.3275141923
  C         4.3751773346        1.9381512248       13.1175182327
  C         3.4213360458        2.3095088002       10.0960861215
  H         1.5165688921        2.1135431095       11.1740434901
  H         2.6604653890        0.7752611354       11.3899325889
  H         4.5115723572        0.9016978957       12.9434023543
  H         4.6851737362        2.1501258592       14.1548217534
  H         5.0910472806        2.4749177010       12.5511470695
  C         4.1494162491        1.1422773200        9.5882620306
  H         2.8759660614        2.7220786544        9.2292470805
  H         4.1222083996        3.0977460091       10.4145638385
  C         4.8541936362        1.3470448489        8.2224636802
  H         3.4261830942        0.3548599520        9.4663892077
  H         4.9379296652        0.7776819413       10.2600100278
  C         6.0110036568        2.2559478803        8.4995705602
  H         4.1781942502        1.8850922857        7.5205000257
  H         5.2654635319        0.4282810126        7.7834892564
  C         7.3262612119        1.5758743526        9.0563285378
  H         6.3039394567        2.7572447719        7.5606922779
  H         5.7026827743        3.0101257426        9.1427284155
  C         8.5307389201        2.5025633827        9.0155451802
  H         7.5590596896        0.6808620657        8.4956751221
  H         7.2535958195        1.3115247189       10.1413245973
  C         8.1197498197        3.7716958481        9.7490477556
  C         8.9809694228        3.2305300211        7.8434665449
  C         9.8099649394        1.9343076955        9.6936009738
  C         8.4809215839        4.9252128129        9.0900567748
  C         7.5261653885        4.0851187295       10.9888311977
  C         8.9072029786        4.5623474287        7.8131278612
  C         9.4394441569        2.6930778707        6.6952154481
  H         9.4237411631        1.6151429013       10.6567570838
  H        10.2331658307        0.9983174234        9.2318677708
  C        10.8636026556        2.8943316562       10.0130353374
  S         8.3274451059        6.3693185080        9.9864179083
  C         7.5587724306        5.4299549474       11.2759037955
  H         7.2648226058        3.2246144932       11.5824855313
  C         9.4216274319        5.2550864126        6.7728784010
  H         9.5338144977        1.6285301534        6.7473723566
  C         9.7944246955        3.3409246990        5.5531549733
  H        10.5700281739        3.7531249600       10.5756936383
  H        11.2946436339        3.1768912593        9.0090068072
  C        11.9479865721        2.2734896821       10.9578749748
  C         7.0764275449        6.1032279669       12.5463683216
  C         9.8513100899        4.6880493855        5.5613368044
  H         9.4369455415        6.3064943353        6.8628804733
  C        10.2543325637        2.9926280352        4.3131695773
  H        12.8623991044        2.8494135056       10.9496764568
  H        12.1429100873        1.2606588478       10.5411775656
  C        11.5817852515        2.2086363439       12.4644004566
  C         7.3087538173        7.4675135978       12.9258421337
  C         6.6752390432        5.2206375384       13.6461274805
  C        10.3374811811        5.3895954883        4.3246698611
  C        10.5758875506        4.1001913031        3.5040495909
  S        10.6686491989        1.5143992360        3.5546574662
  H        10.9109425936        3.0882182784       12.6136607013
  H        11.0517932442        1.2794767817       12.5871166847
  C        12.6845668497        2.2596628386       13.4631984059
  N         7.7583761903        8.4235588170       12.0987134662
  C         7.0652335884        7.9578293752       14.1437862487
  C         6.5010327654        5.6998828957       14.9508871633
  H         6.6525143932        4.1396427601       13.5367490142
  C        11.6054756204        6.2639004499        4.5418634430
  C         9.1790576148        6.1270716122        3.6913037896
  C        11.0931271440        3.7760806264        2.2434746565
  C        11.1206881940        2.4046053785        2.1697550737
  H        12.7276602580        3.3302204756       13.7983518135
  H        13.5982697632        1.9860106446       12.9746720098
  C        12.5503473177        1.3984255595       14.7822100537
  S         7.6351897224        9.9037929887       12.7610860525
  N         7.0621858083        9.3699340204       14.1750287534
  C         6.5946006506        7.0986116246       15.2106956960
  H         6.3128190600        4.9649193202       15.7434665730
  H        11.4277606919        6.9385947317        5.4017237793
  H        11.7739317622        6.8881239474        3.6638421664
  C        12.8794850314        5.4761093555        4.9079276723
  H         8.7953217116        6.9096362314        4.3422992822
  H         9.5000403366        6.6800075521        2.7711329983
  C         7.9645798535        5.1998464180        3.2699725063
  H        11.4494778801        4.5137195827        1.5646735467
  C        11.5678784124        1.6169888562        0.9461770940
  H        11.6625907779        1.5725235445       15.3539558037
  H        12.4450855384        0.4062339313       14.4109203077
  C        13.7507703552        1.4191998088       15.8136967874
  C         6.4563159006        7.6331501193       16.5554454360
  H        12.6403001899        4.7714090263        5.7139364694
  H        13.1861476956        4.9864386775        4.0261620888
  C        14.0470712467        6.4353404646        5.3638587490
  H         7.6735753067        4.6387967351        4.1540645316
  H         8.1403043532        4.5244571344        2.4822650941
  C         6.6436543434        5.9498367823        2.9375167559
  C        11.6132428249        0.1842717944        0.7763840922
  C        11.8400500026        2.3899560746       -0.2814619629
  H        14.6921041243        1.6731765870       15.3442658777
  H        14.0035205506        0.3950017652       16.0503614289
  C        13.3936252606        2.2198033160       17.0226350023
  H         6.5158661012        8.6216632035       16.4766306288
  C         6.2474760665        7.1778683654       17.8334955180
  H        13.6490297230        6.8641561851        6.2971699012
  H        14.2765182734        7.2756090936        4.7465025371
  C        15.4177799713        5.7202198089        5.5770234011
  H         5.8689550999        5.3694869118        3.3683219848
  H         6.6039563778        6.8377261319        3.5320827088
  C         6.4790528100        6.3389602690        1.5293878564
  N        11.3527213317       -0.7918271619        1.7612449135
  C        12.0329510628       -0.4601758841       -0.3923530568
  C        12.2500157009        1.7613545787       -1.4396301706
  H        11.7749340346        3.4731483811       -0.2589674085
  H        14.2638277710        2.5877243926       17.6333483684
  H        12.6079764548        1.6542908871       17.6746342355
  H        12.9480291903        3.1861048339       16.6164524779
  S         5.8282540481        5.6482782417       18.3106244127
  C         6.1268985275        8.2367331501       18.8767130578
  H        15.4065530864        4.6994835616        5.9818906643
  H        15.9916784123        5.6786604101        4.6474531183
  C        16.2785130983        6.4304056828        6.5671304303
  H         6.7560228008        5.5168658907        0.8554067075
  H         7.1075757248        7.1776608606        1.3348243447
  C         5.0394551102        6.7178450525        1.0167647936
  S        11.3341238524       -2.2678916713        1.1732082411
  N        12.0744530534       -1.8459531072       -0.2278411978
  C        12.4389828520        0.2995298418       -1.5295644072
  H        12.2189132836        2.3791728294       -2.3676048221
  C         5.7156122182        6.3099426156       19.9343945439
  N         5.8366992477        7.6485778855       20.0061151637
  O         6.4133004165        9.4234441546       18.6922438425
  H        16.8842444509        7.1300600222        6.0211633216
  H        15.7282257597        6.9927996694        7.2304283546
  C        17.0638317384        5.3517484746        7.2903923599
  H         4.9837714437        6.9589549602       -0.0713809720
  H         4.3470014936        5.8596358478        1.1043912917
  C         4.4461725626        7.8632784928        1.8433712935
  C        12.7895954641       -0.4506442582       -2.7016513096
  S         5.3454256854        5.4114765014       21.3527099105
  C         5.9707768418        8.3552817414       21.2591697674
  H        16.3901808160        5.0362305107        8.1270628566
  H        17.2610262114        4.4927900964        6.6977462498
  C        18.4518018738        5.8310009125        7.7683935041
  H         5.2171495136        8.2725472303        2.5050538993
  H         3.5785576109        7.4203922319        2.4302134665
  C         3.8620119099        8.9607219970        0.9453816818
  H        12.8133812345       -1.5581772224       -2.6289703820
  C        13.3534648114       -0.0790802122       -3.8530236694
  H         5.3190779195        7.9751597729       22.0527848639
  H         5.7050476143        9.3803078802       21.1240541905
  C         7.3930852877        8.2948237210       21.8570121022
  H        18.6772317255        5.4880031623        8.7772196272
  H        18.4515735419        6.9145921892        7.8907084523
  C        19.5309358465        5.4524244056        6.7226665543
  H         4.7099009379        9.4333726688        0.5206642971
  H         3.2795169921        8.4845685935        0.1201039141
  C         3.0702012885       10.0415198000        1.7309317990
  S        13.8953324736        1.4360278141       -4.3121301536
  C        13.4302503789       -1.0788959524       -4.9354980374
  H         8.1056891538        8.7684898556       21.1926879523
  H         7.8359014235        7.2842746776       21.9446121248
  H         7.4147336588        8.6884430626       22.7879196771
  H        19.1719141543        5.8774956000        5.7641096741
  H        20.4512191761        5.9739088700        6.9681472848
  H        19.7175875636        4.4215488065        6.6030045776
  H         3.7663942585       10.8238768958        1.8043614052
  H         2.1581958123       10.4725437029        1.2812520414
  H         2.7728680006        9.7361887951        2.7275469907
  C        14.2248497571        0.7666983011       -5.9250630121
  N        13.9662071596       -0.5029282438       -5.9820659328
  O        13.0821793240       -2.2909419504       -4.8710195759
  S        14.9463100521        1.6413323237       -7.3718604882
  C        13.9701504194       -1.2403683545       -7.1898268856
  H        14.1730399656       -2.2778241753       -7.0006054386
  H        14.7848315092       -0.9683492298       -7.8524566525
  C        12.6511709707       -1.0150400637       -7.8801306731
  H        12.7157466109       -0.9293224832       -8.9903380415
  H        12.0954602370       -0.1492472295       -7.5922675134
  H        12.0718401383       -1.9270819703       -7.6902329347
  H        -2.2526935270       12.8041872631       16.5198025484
  C        -2.7094770607       13.6948461539       16.0792711616
  H        -1.9143543982       14.1797482657       15.6431229168
  C        -3.2287313695       14.5435707796       17.2535504478
  C        -3.6479249605       13.2342285434       14.9258579695
  C        -3.4943081416       13.8669815631       18.5695496863
  H        -2.4929502316       15.3444988774       17.4842105043
  H        -4.1621158522       14.9498411540       16.9287915999
  H        -4.1769982013       12.4505242395       15.3200142044
  H        -4.2501204357       14.0349235127       14.5551995910
  H        -3.0438558727       12.9736004981       14.0659053141
  C        -2.2127846318       13.4458624674       19.3102405147
  H        -4.1034812325       13.0127468021       18.5682762732
  H        -4.0843585939       14.4366012451       19.2220375720
  C        -2.4705341032       13.4766522694       20.8510603457
  H        -1.9232758561       12.4458919260       18.9894519811
  H        -1.4440951393       14.1479112405       19.0626061488
  C        -1.4252910981       12.7805226473       21.7651434671
  H        -3.4510349773       12.9801152242       20.9893760136
  H        -2.6804938255       14.4780139434       21.2804362688
  C        -0.3081065798       13.6117326357       22.3159496862
  H        -1.9909531810       12.5316177486       22.6507923372
  H        -1.1323287632       11.8654933808       21.3055249834
  C         0.7686972469       12.8975753459       23.1839059244
  H         0.1589707396       14.1413050151       21.5650526121
  H        -0.8308870413       14.3677853309       22.9056637381
  C         1.1536300038       11.5691221259       22.4746316407
  C         0.2855853071       12.1063407600       24.3735947410
  C         2.1095647875       13.7621955971       23.4012054531
  C         0.8985860628       10.4100231320       23.2355616087
  C         1.6223141630       11.2285001580       21.2272404276
  C         0.3197081446       10.7364551492       24.4278809101
  C        -0.2415311626       12.6778012637       25.5446923521
  H         2.3548995324       14.2886980903       22.4811812404
  H         2.1045855584       14.4619868424       24.2537342523
  C         3.3936590480       12.9798964825       23.7529774266
  S         1.5137532028        8.9684564105       22.5522785534
  C         1.9533666586        9.8968504647       21.1682085480
  H         1.8615394213       12.0081616348       20.4985389702
  C        -0.1113045470       10.0744861094       25.5814852672
  H        -0.1837975305       13.7344379680       25.7305025478
  C        -0.5334011365       11.9855284543       26.6591478299
  H         3.7679816797       12.2037213506       23.0163548103
  H         3.2095218820       12.3435403925       24.5892241818
  C         4.6447320054       13.7278639232       24.1917674924
  C         2.5280584744        9.1283401705       19.9570339513
  C        -0.5163855614       10.6881512169       26.7299476129
  H        -0.0925563090        9.0213122423       25.5879537666
  C        -0.8312649982       12.3731230594       27.9670239362
  H         5.3204171914       13.0545622593       24.6229582906
  H         4.3369365073       14.3746383708       24.9705585104
  C         5.2962157069       14.6108878309       23.1748235338
  C         2.4067267005        7.7180142752       19.6836109187
  C         2.9532184832        9.9176765585       18.7368265815
  C        -0.9380987163        9.9640959688       27.9373749191
  C        -1.1667773328       11.2818455815       28.7308684909
  S        -1.1081043713       13.7936053490       28.8552941755
  H         5.9971125602       15.2935315659       23.7165438469
  H         4.5515502073       15.1995547001       22.6381574310
  C         6.0435950477       13.8124654485       22.1034370912
  N         1.9985975209        6.7352682772       20.6510322348
  C         2.6977196349        7.1589403915       18.4408575549
  C         3.1832316049        9.3773153930       17.4693851029
  H         3.1288661060       10.9086657173       18.9032062647
  C         0.1941762803        9.1809971644       28.5262975642
  C        -2.1823178113        9.0396412159       27.8903397774
  C        -1.6410738650       11.5733790029       30.0033390563
  C        -1.5162061504       12.9044053980       30.2501301316
  H         7.0006581651       14.3483510762       21.8296494958
  H         6.2643094371       12.8394124827       22.5506396001
  C         5.2009902846       13.6010478292       20.8173825254
  S         1.8878496673        5.3376188829       19.8919504372
  N         2.3908178122        5.8315998196       18.4064452692
  C         3.0692572726        7.9406462349       17.2865855276
  H         3.4636575479        9.9439849694       16.6332135455
  H         0.4859667945        8.4924927372       27.7221268728
  H        -0.1060305221        8.6201745117       29.4271464237
  C         1.4522967516        9.9956813560       28.9124925278
  H        -1.9780834466        8.1672736505       27.2261836162
  H        -2.5577937051        8.6399440629       28.8867492176
  C        -3.4146247920        9.7529823987       27.3837300418
  H        -1.8940121465       10.7859967158       30.7110669022
  C        -1.8630817727       13.5237511186       31.6289334379
  H         5.1174149664       14.5628564355       20.2233523171
  H         4.1224634306       13.3631721124       20.9927103989
  C         5.8220011745       12.6888177711       19.8142771451
  C         3.1766125338        7.3057445694       16.0050855949
  H         2.0294887610       10.3141601876       28.0543940842
  H         1.2650988638       10.8980455158       29.4899356804
  C         2.4514571385        9.1756029813       29.6241693446
  H        -3.1964824690       10.4340026259       26.5475433912
  H        -3.7063209571       10.4605456955       28.1289784650
  C        -4.6161760988        8.8334876997       27.1170219153
  C        -1.7252811515       14.9126489531       31.8503221276
  C        -2.2028466786       12.7994194608       32.8660585000
  H         6.5455425864       12.0818884005       20.3234087604
  H         4.9978579856       11.9472155944       19.5365651261
  C         6.2775303482       13.3149031277       18.5564100407
  H         2.8008773469        6.3140083290       16.1227294222
  C         3.4446170552        7.7907963771       14.7435390105
  H         2.8897698541        8.5010544181       28.8778646786
  H         1.8217038628        8.6309159357       30.4182977670
  C         3.5915025199       10.0461908278       30.2712233976
  H        -4.4926482151        8.1946948937       26.2530333713
  H        -4.9163956495        8.1033314622       27.8782524071
  C        -5.8626015781        9.7003798999       26.8306304062
  N        -1.5057061892       15.8723249886       30.8336885493
  C        -1.9579723630       15.5287296216       33.0494793228
  C        -2.5416763966       13.3734354963       34.0785638942
  H        -2.2021855962       11.7322176948       32.8440703199
  H         7.0963339785       12.6855587290       18.0263803152
  H         5.5337684020       13.6621076114       17.8283118249
  H         6.8228584865       14.1614289188       18.9088853748
  S         3.7111100817        9.2723809979       14.1919698401
  C         3.4627681444        6.7401883109       13.6269161815
  H         3.8766734624       10.9283519622       29.6949151119
  H         3.2495774440       10.3423167505       31.2477017719
  C         4.9923046551        9.4160619845       30.5198863059
  H        -5.8633955457       10.4172329818       27.6441832283
  H        -6.8055352330        9.1462381668       26.9543175455
  C        -5.9248240472       10.3017029687       25.4523758551
  S        -1.5594105749       17.3761665439       31.4780580019
  N        -1.9343469572       16.9314150271       33.0007124339
  C        -2.3816246440       14.8550769084       34.2149523109
  H        -2.7326853449       12.7011303005       34.9415024122
  C         4.1409702238        8.6621154193       12.6150236717
  N         3.9607978582        7.2984965175       12.4917042116
  O         3.2980311195        5.5822331783       13.8709052139
  H         5.6226782005       10.1719550690       31.0107790271
  H         5.4159530912        9.1563925440       29.5493131376
  C         4.8290908375        8.2165054779       31.4483109449
  H        -5.1239660586       10.9526596346       25.2845687840
  H        -5.7078142068        9.5683410097       24.6810363376
  C        -7.1835004192       11.1616479442       25.1510446898
  C        -2.6059153608       15.6004123605       35.4673498873
  S         4.5353728181        9.5579186991       11.1529033667
  C         4.0068190335        6.4625740450       11.3220784439
  H         4.8195398469        8.4849988893       32.4771690435
  H         3.8397313632        7.8566193921       31.3959431467
  C         5.9393829324        7.1348901981       31.1692881432
  H        -7.0232954949       11.7194620239       24.2295058436
  H        -7.3726079562       11.8830927435       25.9800060324
  C        -8.4086003433       10.3508572919       24.7944503986
  H        -2.3185522022       16.6179755342       35.4079452351
  C        -3.2684352681       15.2079395343       36.6099051135
  H         4.7768615968        6.8635073453       10.6406927460
  H         4.3529354800        5.4953447185       11.6234035925
  C         2.5322020537        6.2557206452       10.7307534596
  H         6.9166044841        7.4888627939       31.3726654193
  H         6.0104330971        6.9262198098       30.1181237076
  C         5.7891149179        5.7771104833       31.9583130280
  H        -9.0163124250       10.7467189849       23.9973495711
  H        -8.2493071679        9.2978251988       24.5690770229
  C        -9.3625117377       10.3554354848       25.8672149467
  S        -4.0388511155       13.7534395033       36.9617249546
  C        -3.3145983054       16.1852243754       37.7299109117
  H         2.5121169263        5.4565856043       10.0412238483
  H         1.7365164740        6.0366495313       11.5132610757
  H         2.3640504065        7.1269175911       10.1135503477
  H         6.2467341887        4.9602476856       31.4668189208
  H         4.7394149319        5.4849864618       31.9043568243
  H         6.1628893532        5.7754223453       32.9532751719
  H        -9.8057895729       11.4070044288       25.9442322357
  H        -9.0330736714       10.1683101218       26.8561897034
  H       -10.1858229415        9.6419389687       25.6203129084
  C        -4.5416011216       14.3682259786       38.4888268591
  N        -3.9768788646       15.5523598534       38.7606256918
  O        -2.7663217441       17.3026492920       37.6153864761
  S        -5.1867776007       13.2867408861       39.7465260389
  C        -4.3639180054       16.2870520498       39.9812918383
  H        -4.9625293656       17.1160290825       39.7181706844
  H        -4.9757703772       15.7041809689       40.5760232340
  C        -3.1723875292       16.8089338271       40.8053040351
  H        -2.1837529861       16.8453620189       40.3212039493
  H        -3.2830460951       17.8628520746       41.1548802434
  H        -3.2620929767       16.2431238085       41.7253559538
