352
i=
  H         4.1931473155        1.2694815625       12.8622998077
  C         3.8173024937        2.2932188554       12.9546751715
  H         4.7754627634        2.7884281056       12.9151959695
  C         2.9704565469        2.5241966308       11.6388728614
  C         3.0019506695        2.4617853539       14.2854212595
  C         3.6701895154        2.6185611559       10.3369452326
  H         2.4033070377        3.4848864599       11.7414581427
  H         2.2712285524        1.6993242352       11.5965737864
  H         2.2831433392        1.6330244359       14.4791287991
  H         2.5994826259        3.4575732858       14.3354762868
  H         3.7788158809        2.2839876540       15.0345069719
  C         4.6520169140        1.4901242453        9.8934254035
  H         2.8231855732        2.6840103173        9.6865633121
  H         4.1543434544        3.5993329339       10.4670771884
  C         5.3910245718        1.8321789662        8.5727140574
  H         4.0710755482        0.6779541042        9.6215646471
  H         5.3885158616        1.1479561848       10.6265446576
  C         6.6197063520        2.6850831192        8.7210506524
  H         4.6403728530        2.3334602766        7.9835853432
  H         5.6053509498        0.9514539578        8.0312176841
  C         7.8276253130        1.8621498553        9.3120729439
  H         6.8663811812        3.0399238025        7.7221436015
  H         6.3139152889        3.4760553635        9.4135087521
  C         9.1765018618        2.6745298752        9.4725816163
  H         7.9919165198        1.0477299521        8.5582574870
  H         7.5332583818        1.4594983158       10.2895062116
  C         8.8073808680        4.0565780341       10.0985437378
  C         9.6113628310        3.3795863203        8.1711195063
  C        10.3721021035        1.9191483793       10.1265904857
  C         9.1779098112        5.1423219419        9.3423952602
  C         8.2381740032        4.3834592708       11.3386233645
  C         9.6424568331        4.7438829286        8.0828144981
  C        10.0531590773        2.8178800261        7.0194932100
  H         9.9276153494        1.1298435995       10.8337620158
  H        10.9904930572        1.4464069402        9.3416721171
  C        11.1985489476        2.8323794668       11.1456302247
  S         8.8340123086        6.6444510733       10.1748396180
  C         8.1975248131        5.7341614718       11.5478104129
  H         7.9622231919        3.6336902174       12.0221764279
  C        10.0537025065        5.3885217066        6.9875150388
  H         9.8507739704        1.7890580834        6.9098003416
  C        10.4902710144        3.4282866869        5.8559274999
  H        10.5678194203        3.1764597047       12.0130400477
  H        11.5334516831        3.7191067100       10.5931984168
  C        12.3717795662        2.0435911353       11.7372778986
  C         7.6980621542        6.4251369906       12.7968786903
  C        10.4355212341        4.7703355642        5.7559161057
  H         9.9554287812        6.5196920428        6.8518091028
  C        10.8579910867        3.0704034016        4.6076432414
  H        13.2899618644        2.5787894039       11.5331725753
  H        12.6252927437        1.0486930475       11.3562993630
  C        12.1752687659        1.8582069171       13.2273392470
  C         7.7163598328        7.7839185210       13.0159017820
  C         7.1803134563        5.6595502256       13.9199528259
  C        10.7876993871        5.4781399026        4.5131595466
  C        11.0572116915        4.1763859371        3.7964791945
  S        11.1418552805        1.5485963086        3.9793789427
  H        11.8487013680        2.7427077450       13.6920197187
  H        11.3793874591        1.1193932688       13.2632489196
  C        13.4216581639        1.4623982051       13.9535723796
  N         7.9842307152        8.6671580836       12.0671975834
  C         7.4136587114        8.3927669741       14.2345787899
  C         6.9044870096        6.2185334915       15.1562919408
  H         7.0072280859        4.6135514214       13.6841256301
  C        12.0563368894        6.2874330225        4.7058042781
  C         9.5466615291        6.2846034396        3.9624078072
  C        11.4917658887        3.7233150459        2.5359138003
  C        11.5030627028        2.3504022736        2.4578083276
  H        14.1275671013        2.2610097403       14.2059837910
  H        13.9463558798        0.8256680168       13.3073205959
  C        13.0880031866        0.7675782973       15.2338895597
  S         7.9408418163       10.2397225263       12.6917910351
  N         7.4834552269        9.8099583348       14.2037230437
  C         7.0026026259        7.6667124661       15.3738755479
  H         6.6028011265        5.5663534750       15.9546907049
  H        11.8421663584        6.8303082489        5.5922841551
  H        12.1616279541        7.0391180105        3.9121623099
  C        13.4247235948        5.5454825354        4.8963954867
  H         9.4005790341        7.1626358061        4.5994256841
  H         9.9710667391        6.7792199739        3.1089610739
  C         8.2316325176        5.5135508924        3.7492431635
  H        11.6499380380        4.4388148624        1.7559646268
  C        11.8240501927        1.6170774874        1.1485627592
  H        12.7029426285       -0.2877420683       15.2032100052
  H        14.0413191772        0.6377033334       15.7746881817
  C        12.3607629970        1.6379670476       16.2399834260
  C         6.8055383812        8.3523527328       16.6140637840
  H        13.4265739472        5.0326297852        5.8167873397
  H        13.5125009902        4.7857954526        4.0274932175
  C        14.5851511428        6.5382266674        4.9102885110
  H         7.7683878277        5.2761053194        4.7008797193
  H         8.2888132102        4.5539214842        3.1758228222
  C         7.2193825859        6.3688929990        2.9075880697
  C        11.8363427323        0.2228827657        0.9959402115
  C        11.9574017197        2.4182801483       -0.1480591084
  H        11.4900482368        1.1927701496       16.6269033493
  H        12.1205645321        2.5821684946       15.8455175586
  C        13.0808659653        1.9186333382       17.5531120908
  H         6.8739406059        9.4057079882       16.6576122380
  C         6.5074514656        7.8431428605       17.8612099373
  H        14.2361307814        7.3019721497        5.6738588872
  H        14.7389580235        7.0016685710        3.9268323045
  C        15.9852555103        6.0217906926        5.4082476344
  H         7.1264222251        7.3352509347        3.3772519924
  H         7.5822250940        6.3507232168        1.9281961950
  C         5.8328555549        5.7587952499        2.8618690478
  N        11.6978850739       -0.6658604889        2.0154479988
  C        12.0562592647       -0.4277775701       -0.1783726020
  C        12.0740483675        1.7451391341       -1.3247351060
  H        11.8069467843        3.4634501369       -0.3366805896
  H        13.5161401022        0.9900067564       18.0145105757
  H        12.4167114348        2.3899909626       18.2111408485
  H        13.9084680351        2.5904283208       17.3696078117
  S         6.2019444759        6.1430043333       18.2652908328
  C         6.6577218557        8.7861052761       18.9755977383
  H        16.3760451643        5.2880128275        4.6852554109
  H        16.8282237765        6.7879931773        5.3515369970
  C        16.0411544522        5.5337025033        6.8564474932
  H         5.4034781213        5.7148887093        3.8534370507
  H         5.9892765524        4.7538622169        2.4974176590
  C         4.8324455860        6.5829557093        2.0456560561
  S        11.8573735407       -2.1658605442        1.4723089908
  N        12.0961154980       -1.7624109939       -0.0771969266
  C        12.3887815071        0.2808306985       -1.3753955441
  H        11.9894126948        2.2834039093       -2.2571656306
  C         6.1633279733        6.7284889575       19.9488436218
  N         6.3438781830        8.0737202869       20.0739468518
  O         6.8246257079       10.0347629047       18.8962637678
  H        15.8089340064        6.3548388352        7.6396477633
  H        15.1764965091        4.8444733805        6.9942087818
  C        17.2991400295        4.8056154788        7.3025595612
  H         4.7906796100        6.3615784905        0.9313757927
  H         3.8732907846        6.4003859392        2.4640768842
  C         4.9480014830        8.1558827205        2.0735364169
  C        12.6980577590       -0.5207779862       -2.5365660329
  S         5.6194426074        5.7137588112       21.2196105069
  C         6.2783480995        8.7864839228       21.3909050929
  H        17.0006680747        4.0721034967        7.9716068427
  H        17.7398135316        4.1227433508        6.5081521950
  C        18.4449770493        5.6593816085        7.8318340701
  H         5.9656576382        8.3223839776        1.7486554307
  H         4.9126087507        8.4030823859        3.1272912739
  C         3.7512376678        8.9220720940        1.3815363343
  H        12.3891141504       -1.6017575376       -2.5429684159
  C        13.0944373178       -0.1044522198       -3.7970830065
  H         5.7226347274        8.2878601392       22.1980630320
  H         5.7971794141        9.7459580749       21.2480141024
  C         7.7594855004        8.7835223222       21.8385473352
  H        18.9025398270        5.2118354669        8.6984408059
  H        18.0359813069        6.6181222042        8.2652188896
  C        19.6091057589        5.7991992664        6.8298092662
  H         3.5087949236        8.3330019354        0.4698565857
  H         2.8243007340        9.0036235923        2.0578655857
  C         4.2756722375       10.3189659510        1.0127689527
  S        13.5555000140        1.4690052421       -4.2341146517
  C        13.3613779592       -1.1318337159       -4.8809528904
  H         8.0501599550        7.7699594670       22.0280790251
  H         7.6334527078        9.3420160031       22.7919623563
  H         8.4755610782        9.3085518489       21.2581828995
  H        20.2118439474        4.8652330126        6.7950537982
  H        19.3186124623        5.9693466357        5.8157614137
  H        20.4906756780        6.4443558665        7.1304426157
  H         5.2094544795       10.4979962988        1.4566270203
  H         4.2665414982       10.5132728950       -0.0872079054
  H         3.6535990875       11.0996065459        1.4669799119
  C        13.9550926505        0.7953415357       -5.8608534143
  N        13.9134157714       -0.5550824582       -5.8900843804
  O        13.1462305627       -2.3334047990       -4.7606480558
  S        14.8674742283        1.6437527608       -7.0755131968
  C        14.3369121007       -1.2880931774       -7.0729933120
  H        14.5441413758       -2.3159438683       -6.7947782078
  H        15.3564556737       -0.9861742671       -7.4484892213
  C        13.1031911256       -1.2760792911       -8.0343877077
  H        13.0914077632       -0.3802115620       -8.5833955699
  H        12.1691639017       -1.4423411618       -7.4648896952
  H        13.0600589263       -2.1071603597       -8.6704410297
  H        -3.2417209666       15.2247643210       16.5511502477
  C        -3.0930164585       14.1687861416       16.5681646345
  H        -3.8689380984       13.6682750128       16.9911298996
  C        -1.7726530767       13.8952769723       17.3527287667
  C        -2.8733496168       13.7849400458       15.1014926661
  C        -1.8714783530       14.3970918840       18.8215144682
  H        -1.7748516309       12.8194679915       17.3250567885
  H        -0.8747617445       14.2843331599       16.9255354975
  H        -2.4199298021       12.8225054126       14.9419561682
  H        -3.7526634863       13.4789203378       14.6223666199
  H        -2.5380714357       14.5828375727       14.5346556868
  C        -1.6609588645       13.1977121184       19.7821528515
  H        -2.8477661361       14.8311386454       18.9393702753
  H        -1.1519903546       15.1607145353       19.1107191134
  C        -2.0682829734       13.6269481938       21.1696092686
  H        -2.2411153781       12.3265470622       19.4160402794
  H        -0.6690012095       12.8853138916       19.7662590413
  C        -1.1636941965       12.9724394364       22.2260180830
  H        -3.1260777174       13.4239727564       21.3522443465
  H        -2.0071897749       14.7282455780       21.2512995122
  C        -0.0019440524       13.8460785940       22.6122595917
  H        -1.7350096327       12.6676055119       23.0739459499
  H        -0.7287196575       12.0705187431       21.8624611003
  C         1.0695873469       13.1873747281       23.3987050156
  H         0.3796986729       14.1171262958       21.6959522468
  H        -0.3695027001       14.7205507009       23.1762736101
  C         1.4818368266       11.8546762053       22.7701531477
  C         0.4651982932       12.4754196294       24.6642072279
  C         2.3383703023       14.1121568663       23.6313293623
  C         1.2351135249       10.7672522290       23.5420065473
  C         2.1150579991       11.4574855459       21.5354438964
  C         0.5655130668       11.1186108257       24.7436360354
  C        -0.0148672907       13.0897098433       25.8122940179
  H         2.6300620118       14.5191046091       22.7041805532
  H         1.9647475818       14.9437549352       24.2517366211
  C         3.5925935623       13.4350621692       24.2300765648
  S         1.5032827593        9.2359807332       22.7568958837
  C         2.1633434915       10.0962639072       21.4293398266
  H         2.4808061840       12.2138962359       20.8261598597
  C         0.1606845057       10.4180437113       25.8890779121
  H         0.0119544154       14.1266966177       25.9004249655
  C        -0.3394559229       12.4489544591       26.9843695644
  H         3.7121493265       12.4265688280       23.7193576666
  H         3.3294176550       13.1715004235       25.2740567057
  C         5.0027909059       14.1062659984       24.0170981753
  C         2.5987316220        9.3416445818       20.2078938646
  C        -0.2934169777       11.0803465619       27.0503761011
  H         0.2428090855        9.3140716068       25.9808653532
  C        -0.7527190054       12.8345050176       28.3027278482
  H         5.6413060932       13.5057505569       24.6694165764
  H         5.2017005386       15.1139880276       24.4443873918
  C         5.5430278497       14.0538762695       22.5964069844
  C         2.5653325508        7.9405388884       19.9287323629
  C         3.0663321710       10.0768514918       18.9773276476
  C        -0.7282701548       10.4043847529       28.3250930335
  C        -0.9572195095       11.7321969324       29.0540897634
  S        -1.0493258306       14.3083254613       29.0538005143
  H         5.9547112401       15.0594676352       22.2949685652
  H         4.7942127987       13.9997495048       21.8054946636
  C         6.5820630480       12.8945795462       22.3146549738
  N         2.2494150339        7.0246948454       20.9045923501
  C         2.8913667609        7.2342759947       18.7906177123
  C         3.4017812253        9.4612898843       17.7673115987
  H         3.1804119034       11.1550914540       19.0715901950
  C         0.4262724316        9.6565018544       29.0132968222
  C        -2.0020669945        9.5650162220       28.1885099965
  C        -1.2459998082       12.0872049850       30.3865370153
  C        -1.2889337784       13.4457970442       30.5367109475
  H         7.5947972594       13.1582320758       22.6383929453
  H         6.2162169456       12.0121455296       22.8164078515
  C         6.5488138826       12.6074491433       20.7805905735
  S         2.4120824307        5.5014994860       20.3025579680
  N         2.7374589471        5.8619763282       18.7601624581
  C         3.3368601483        7.9521556724       17.6241860497
  H         3.8807004891       10.1167167932       17.1067685054
  H         0.6597865501        8.7283016727       28.4409905642
  H         0.1738573329        9.5468830394       30.0399268473
  C         1.7434972600       10.3956328606       29.0243110557
  H        -1.8417843416        8.8913247430       27.3279167719
  H        -2.2909453773        9.0581675246       29.1105295915
  C        -3.2920128739       10.4285549314       27.8914060623
  H        -1.3820995260       11.3709050373       31.1445656623
  C        -1.6076150056       14.2287292446       31.7676600446
  H         5.6048190915       12.1029153452       20.4497155539
  H         7.3697155915       11.9291322495       20.6323812071
  C         6.7191810422       13.8428661290       19.8706780976
  C         3.5550410970        7.2409759903       16.3662698766
  H         2.1113077460       10.5373879157       28.0304210338
  H         1.6488812262       11.3036364894       29.5833877542
  C         2.8248675314        9.6076802472       29.7603157393
  H        -3.0534701325       11.2223285743       27.1169054324
  H        -3.5948724453       10.9759684712       28.7792725515
  C        -4.5645544714        9.6156768505       27.6240889480
  C        -1.5763882997       15.6360723979       31.9152599055
  C        -2.0081512437       13.4636739763       33.0041319507
  H         6.0007031805       14.6596572624       20.0034547480
  H         7.6143569589       14.3814915917       19.9949855891
  C         6.7012621830       13.3514450000       18.4664544534
  H         3.6744853401        6.1125045483       16.5188044256
  C         3.6494811224        7.7796798577       15.0746637452
  H         3.2320152097        8.7321710723       29.2943745880
  H         2.3029836676        9.2347527427       30.6306776099
  C         4.0849841946       10.4950874125       30.0883076609
  H        -4.4017228125        8.8452404157       26.8736009651
  H        -4.9071421052        9.1067740295       28.5128978562
  C        -5.7283756469       10.5601402162       27.2983309454
  N        -1.3994520176       16.6314356955       30.8916288893
  C        -1.9849095838       16.2689845912       33.1454350844
  C        -2.2271977141       14.0473858628       34.2239564790
  H        -2.0541312648       12.3867811787       32.9254006118
  H         6.2099556232       14.0949064860       17.8619092732
  H         7.7458751124       13.1390243972       18.1987410818
  H         6.0285950425       12.4970335672       18.4205556443
  S         3.8012592205        9.4151558139       14.6599677113
  C         3.7105504897        6.8709507240       13.9138442701
  H         4.0590762667       11.2740484072       29.3546073155
  H         3.9440776547       11.1246411275       31.0462489498
  C         5.2968943511        9.5354166441       30.1945657295
  H        -5.3303985970       11.3556694459       26.7176425185
  H        -6.0815002623       10.9460499146       28.2934157209
  C        -6.7734189788        9.9130072568       26.4511945811
  S        -1.4735524438       18.0923828358       31.6119847871
  N        -2.0245078941       17.6653709784       33.0773772610
  C        -2.2892303748       15.5206504017       34.3436327176
  H        -2.3919977478       13.5023176872       35.1786937373
  C         4.0877534393        8.8152939126       12.9573329797
  N         3.9837548300        7.4857655260       12.7973464863
  O         3.5697526035        5.6471661248       14.1588402892
  H         6.2458604604       10.0663702404       30.4558085539
  H         5.4986873188        9.1229864971       29.1630882107
  C         5.1294216143        8.4302919632       31.2534022571
  H        -6.2641520406        9.3821212124       25.6420938072
  H        -7.3007851393        9.2047974107       26.9900578918
  C        -7.5498810603       10.9066095566       25.5898711228
  C        -2.6228637732       16.2052987269       35.4843982833
  S         4.7261971602        9.7601887583       11.5649634068
  C         3.9543464705        6.8096283802       11.5117839584
  H         5.1774015815        8.7659532797       32.2959935954
  H         4.1231613903        7.9856101443       31.1298007065
  C         6.1834682124        7.3621128221       31.1266444955
  H        -6.8476939806       11.4017986197       24.8922900517
  H        -8.0873482205       11.5983163204       26.2866876585
  C        -8.7610330484       10.2726252165       24.9998992321
  H        -2.6722563800       17.2912823998       35.3986245620
  C        -3.0667557311       15.8519975312       36.7340502652
  H         4.8058247271        7.0615945718       10.9765645386
  H         4.0491462692        5.7225005181       11.6865098827
  C         2.6621642828        7.0050061137       10.7930095716
  H         7.0907422906        7.6520373088       31.6768895140
  H         6.3227449708        7.2153035088       30.0281200208
  C         5.8864060901        6.0895545475       31.9515741851
  H        -9.1179596144       10.9980921487       24.3040614117
  H        -8.6559539026        9.3971182537       24.3890183867
  C        -9.9131640440        9.9631017128       26.0182689699
  S        -3.3341123932       14.2791106191       37.3673141999
  C        -3.2912018426       16.9006966277       37.7154632418
  H         2.4286329247        6.1550626175       10.2704233706
  H         1.8403139003        7.2241894713       11.4652136477
  H         2.6883668111        7.8749710677       10.0935058596
  H         6.2730514930        5.2000309381       31.4537755650
  H         4.7886131020        6.0665818805       32.0080431993
  H         6.1821218611        6.2933993196       32.9986276832
  H        -9.5646950727        9.0606261398       26.5176035392
  H       -10.8035527998        9.7234034837       25.5213341707
  H       -10.0479524690       10.7702557154       26.6962633800
  C        -3.9458904269       15.1093943220       38.8761191648
  N        -3.8745855473       16.4386304228       38.8244752403
  O        -3.0544237469       18.1426135984       37.6290535344
  S        -4.3524992102       14.2351487274       40.3971793346
  C        -4.0211974389       17.3975150137       39.9768705032
  H        -4.2865230717       18.3812084780       39.6149287416
  H        -4.8360219695       17.0710409384       40.6445530999
  C        -2.7219964944       17.5404581789       40.7577078182
  H        -2.7753059218       17.6697377210       41.8158397649
  H        -2.0874707030       16.6966667131       40.7505824877
  H        -2.0745402856       18.3226104606       40.3534769339
