352
i=
  H         2.1111641856        3.7506129301       12.2934275276
  C         2.7255310592        2.8233627483       12.5970179525
  H         2.1837421894        1.8998339535       12.2754303067
  C         4.0348196158        2.7520898583       11.8067170861
  C         3.0735633298        2.7127605264       14.1444299481
  C         3.7180881105        2.8183151126       10.2637681049
  H         4.5440065845        1.8243457003       12.0565902907
  H         4.7746137484        3.6328146755       12.1071097559
  H         2.1953821792        2.8869354149       14.7905329665
  H         3.9527245251        3.3350499229       14.3759010080
  H         3.4850053856        1.6805210988       14.3504509171
  C         4.5613725104        1.8393821514        9.4358982802
  H         2.6669292878        2.5280439192       10.2366147055
  H         3.6807670023        3.8656392468        9.8376159265
  C         5.2294683721        2.5972017648        8.2596769055
  H         3.7637686389        1.2677628367        8.9124191644
  H         5.1924010112        1.2137220996        9.9898983832
  C         6.3905435254        3.3752596227        8.7980554372
  H         4.5639239506        3.2670687126        7.8224997107
  H         5.4980210581        1.9191773385        7.4693685369
  C         7.6753917597        2.5123898782        9.0873168404
  H         6.6226262525        4.2625558741        8.1917054963
  H         6.0443282828        3.7485737495        9.7027361628
  C         8.9920683918        3.3216248242        9.2880043442
  H         7.8257700976        1.7924461254        8.3377763093
  H         7.5332747247        1.8911674287        9.9432642385
  C         8.7638994510        4.7025504156        9.8604292415
  C         9.4819748703        3.9330887214        7.9983381300
  C        10.1985951533        2.5296478000        9.9136093248
  C         9.0991797104        5.7506325927        9.0595995220
  C         8.3483670111        5.0933827853       11.1060624719
  C         9.6725179618        5.2542641705        7.8596022991
  C         9.8505545057        3.2663645545        6.8705851767
  H         9.8411522750        2.1173359533       10.7993280761
  H        10.5477723160        1.6688377258        9.2860468105
  C        11.4355780840        3.3437113595       10.2651822926
  S         8.8008246452        7.2571081903        9.7399570539
  C         8.2117139089        6.4512834341       11.1504278845
  H         8.1985127296        4.3613839954       11.8685084662
  C        10.1645831142        5.8314475080        6.7295018505
  H         9.7201418540        2.1903504278        6.8080681349
  C        10.3762192177        3.8353585504        5.7349472053
  H        11.1675126646        4.2805229801       10.6470518467
  H        12.0573326306        3.4144040703        9.3822139943
  C        12.2363199140        2.8095297657       11.4868679931
  C         7.6984636949        7.1475918869       12.3831272576
  C        10.4969928277        5.1763791780        5.5900508017
  H        10.3011489920        6.9138730654        6.7983818001
  C        10.9759759971        3.4200981909        4.5970580248
  H        13.1890872432        3.2494571415       11.4019347673
  H        12.5012629333        1.7531854433       11.2047028057
  C        11.5922362101        2.9858021670       12.8725360380
  C         7.7044064039        8.5314875519       12.6325487764
  C         7.1797746423        6.3733676023       13.5261053602
  C        11.0678164366        5.8041072708        4.3103772009
  C        11.2662263979        4.4304555676        3.6974643737
  S        11.1964800356        1.7493273835        3.9333098980
  H        11.2344953797        3.9948643308       13.0914527524
  H        10.7348720171        2.3472254211       12.8735036289
  C        12.4731641863        2.3177038213       13.9056162832
  N         8.1050155594        9.4419312443       11.6896267951
  C         7.3670780511        9.0421427462       13.8768813352
  C         6.7482755243        6.8895701204       14.7663733666
  H         6.9006387635        5.3148614032       13.3160011347
  C        12.3448797208        6.6152291434        4.6119848729
  C        10.0372766633        6.6503120140        3.4662202812
  C        11.6274943966        3.8822545210        2.4762982848
  C        11.6145204313        2.4914668095        2.3904830517
  H        13.1191976538        3.0854707886       14.1668424685
  H        13.1030227485        1.5199132469       13.4773080483
  C        11.5263519744        2.0624284534       15.1312495662
  S         8.0827472801       10.9100342147       12.3811231745
  N         7.5553445690       10.4405810210       13.8617801247
  C         7.0322356086        8.3410326048       15.0075479364
  H         6.3288561855        6.1417945715       15.4900710280
  H        12.2166949336        7.3307547580        5.4164179220
  H        12.6009697008        7.2335869653        3.7365185426
  C        13.5059126874        5.6673936206        5.0395676247
  H         9.7870808804        7.3828544650        4.1769531726
  H        10.5089549111        7.1562788833        2.7042708678
  C         8.7831654531        5.8590617559        3.0580131471
  H        11.8003043238        4.6012551517        1.6437421598
  C        11.9116486955        1.7402158823        1.1294302584
  H        10.6739068797        2.8458507001       15.0415328184
  H        11.0435294776        1.0983888294       14.9668275309
  C        12.2689129913        1.9346408625       16.4619096473
  C         6.9079029255        9.1096075594       16.2359523374
  H        13.2863108856        5.0544767183        5.9030583754
  H        13.7019925785        4.9142495839        4.2059282900
  C        14.7745135849        6.5125575159        5.2815198684
  H         8.4883921386        5.1751736222        3.8319320599
  H         9.1645169698        5.3237657848        2.2182287781
  C         7.6104776554        6.7773673253        2.6672877425
  C        11.9161620224        0.3342440573        1.0711072605
  C        12.2866897489        2.4544578141       -0.1215971746
  H        13.0308680017        1.1334733913       16.3913691330
  H        11.6161864353        1.6372462124       17.2988106949
  C        12.9064745943        3.1802606837       16.9727239572
  H         7.1879578520       10.1604929064       16.2443931137
  C         6.7008143408        8.6286846375       17.4916749109
  H        14.6012325689        7.5628625590        5.3469793179
  H        15.2527336464        6.3416264149        4.3353272915
  C        15.6609618892        6.0840245777        6.4308687279
  H         7.0940035762        7.2686142213        3.4701961150
  H         7.9948508767        7.5619241023        2.0168064907
  C         6.6972029413        5.9944593130        1.7184079544
  N        11.4834338654       -0.5297088392        2.1060793347
  C        12.2132285589       -0.2741273542       -0.0987505298
  C        12.4037922975        1.7663134528       -1.3353880743
  H        12.0908542280        3.4914228772       -0.1644273025
  H        12.1386957866        3.9077717140       17.0653423970
  H        13.6962515171        3.5291417586       16.3187504279
  H        13.2459284660        3.1056659798       18.0131740829
  S         6.3170850279        7.0207570569       17.9496208133
  C         6.6215735075        9.5781488665       18.6340892980
  H        15.7233825996        6.9194546278        7.1663835555
  H        15.1468809697        5.1870064451        6.8988407334
  C        17.0771510104        5.7598028750        6.0227505221
  H         6.8850034916        4.9743496530        1.9605133441
  H         7.0655678364        6.1250393418        0.6551949938
  C         5.1830494510        6.2475058546        1.8146662197
  S        11.7398031859       -2.0559752069        1.5584307158
  N        12.3050587498       -1.6307970611        0.1279403293
  C        12.6118612142        0.3479621721       -1.2947250701
  H        12.5314687719        2.3100585924       -2.2434880207
  C         6.0823765462        7.5498967497       19.6252785791
  N         6.1953536570        8.8954907878       19.7604819154
  O         6.7404861846       10.7827688782       18.5476454198
  H        17.0378297774        5.2167223264        5.0493080953
  H        17.7223296279        6.5910804723        5.7208724099
  C        17.8359099989        4.9839817531        7.1335148189
  H         4.6386651014        5.6390559995        1.0928726321
  H         4.7723722111        5.9282936628        2.8043027633
  C         4.9011104865        7.7733372306        1.4355302077
  C        12.8871996169       -0.4289179508       -2.4450818647
  S         5.7034186326        6.5713903473       21.0177948640
  C         5.9112480130        9.6577140100       20.9301570045
  H        17.1749234175        4.8993462377        8.0101426650
  H        18.1932875367        3.9946278487        6.8132717866
  C        18.9946832827        5.7272076479        7.6911735115
  H         4.5538810056        7.7724372255        0.4111291544
  H         5.7972722872        8.4079412863        1.4936772136
  C         3.6426202977        8.3334062507        2.1033147981
  H        12.5461223217       -1.4401710340       -2.3925244926
  C        13.4041161815       -0.1089656197       -3.6621238073
  H         5.1306757666        9.2699620876       21.5074878561
  H         5.4924307665       10.6948923941       20.6655319224
  C         7.1829769770        9.8256775308       21.7733071482
  H        19.2755602011        5.3215301566        8.6801978709
  H        18.7667490708        6.7534103733        7.9076282988
  C        20.1781417426        5.7610056271        6.7499908057
  H         2.6992230304        8.2397586080        1.5558417021
  H         3.5545199087        7.8925276207        3.0773278193
  C         3.8581816677        9.8690146983        2.2928461530
  S        13.9410377364        1.4110063091       -4.2282292933
  C        13.4462247622       -1.1726650327       -4.7314625724
  H         7.1437653340        9.1842600428       22.6708530278
  H         7.2521512223       10.8970967389       21.9619632260
  H         7.9693459544        9.5468150367       21.0835619630
  H        19.9096292322        6.3628202260        5.9315501951
  H        21.1153662442        6.1946942455        7.2384755811
  H        20.6527819215        4.7837697606        6.4106735665
  H         4.4634584120       10.1321308976        3.1616354978
  H         4.3507941272       10.1919766177        1.4042802392
  H         2.9964467921       10.4845469942        2.3816655678
  C        14.1492489683        0.6988625972       -5.8422680702
  N        13.8545254602       -0.6418897982       -5.9276228252
  O        13.2874103233       -2.3571045808       -4.5553513106
  S        14.5414432169        1.5174258299       -7.3004818803
  C        13.8029664223       -1.4781347110       -7.0854810640
  H        13.8826030258       -2.5031238311       -6.9038173496
  H        14.8065269055       -1.3227318683       -7.5612179585
  C        12.6914798049       -1.0409401599       -7.9799583876
  H        12.1380185107       -0.2625379415       -7.5685608814
  H        11.9084432635       -1.7551035867       -8.1387275891
  H        13.0745157353       -0.5981912926       -8.8849275801
  H        -3.5039525001       14.9670673183       16.8229573565
  C        -3.0584743943       13.9606748560       16.6811399714
  H        -3.8790938573       13.2905355793       17.0714652579
  C        -1.7513276059       13.6758922864       17.4085865417
  C        -2.9150486664       13.7052206086       15.2172698383
  C        -1.9420563066       13.2139690119       18.8657232649
  H        -1.2276310530       12.9593202011       16.8671992080
  H        -0.9827652076       14.4493019951       17.2850884940
  H        -2.1670783400       14.3897590111       14.8337052480
  H        -2.6764060588       12.6718376788       15.0637879923
  H        -3.8374063059       14.0003356774       14.8106055124
  C        -2.4559068717       14.2016208488       19.8605882044
  H        -0.9980031367       12.9937348640       19.2113651106
  H        -2.6077334952       12.3377636268       18.9223959965
  C        -2.8331387570       13.4582298802       21.1332909396
  H        -1.6373769134       14.9271806096       20.0362481219
  H        -3.2688578837       14.7755735302       19.3368994292
  C        -1.7187906802       12.7279393206       21.8807439422
  H        -3.6868105657       12.8511762692       21.0026197040
  H        -3.2911397586       14.2167328972       21.7643102678
  C        -0.5532354503       13.6456228463       22.2488793690
  H        -2.1177064242       12.1527952858       22.7563039594
  H        -1.3614244013       11.9503620206       21.2887525437
  C         0.6788070589       13.0682593594       22.9293146850
  H        -0.2346259542       14.0343794759       21.3046234110
  H        -0.9176698578       14.5413314720       22.8020526937
  C         1.0194031931       11.7726477671       22.2621144864
  C         0.3538790259       12.3283695324       24.2026352212
  C         1.8620537073       14.1081512123       23.0333701026
  C         1.0610391502       10.7108407289       23.1366725361
  C         1.5388366900       11.4751367332       20.9631474451
  C         0.4848642830       10.9626947123       24.3252995651
  C        -0.1281304591       12.8997139763       25.3613123355
  H         1.9895952213       14.4735156137       22.0228320265
  H         1.5581741716       14.9742738050       23.6361175203
  C         3.1493281454       13.4416774449       23.5835970053
  S         1.9171526829        9.3679123303       22.4131983699
  C         2.0071584144       10.1958812268       20.8924031692
  H         1.4367794189       12.1792779938       20.1879537331
  C         0.2406366005       10.2919374853       25.5376861281
  H        -0.1944429594       13.9874891982       25.3954833297
  C        -0.3332033213       12.2876194066       26.5621661704
  H         3.4455935193       12.6560733839       22.8624470269
  H         3.0498374827       12.9910611922       24.5799181085
  C         4.3771523933       14.3464519088       23.6892319602
  C         2.4721315656        9.5270070598       19.5979579155
  C        -0.2590295148       10.9695575803       26.7134753560
  H         0.4979140113        9.2153022397       25.6736752339
  C        -0.7953025262       12.7112444052       27.7811222441
  H         5.0323240262       13.7528102910       24.2760800508
  H         3.9787306983       15.1905233860       24.2294653420
  C         4.9980494037       14.7670711916       22.3338833816
  C         2.5458303294        8.1123697589       19.3791771938
  C         2.8981663612       10.4057502871       18.4636182401
  C        -0.5738519869       10.3238673827       28.0522875249
  C        -0.9178263974       11.6747750537       28.7288525833
  S        -0.9984350131       14.2559644513       28.4984810845
  H         5.4898383685       15.6932678685       22.5268585919
  H         4.1161509792       14.8775991591       21.6966231519
  C         5.9966560309       13.8565717730       21.6609132746
  N         2.1900666533        7.0360853992       20.2413575908
  C         3.0176693559        7.6224835694       18.1639170685
  C         3.2474516788        9.8729557644       17.2739227479
  H         3.0161876745       11.4807612334       18.6276513229
  C         0.6467827715        9.6619966915       28.7300382425
  C        -1.8742210143        9.4907793356       28.0138970405
  C        -1.3164706580       12.1411193920       30.0556047983
  C        -1.3702618436       13.5167497320       30.0547911684
  H         7.0455262577       14.1165800433       21.8997697469
  H         5.7665427916       12.7988745066       21.9128607015
  C         5.8352917758       14.0467828405       20.1287223897
  S         2.7267017720        5.6358083709       19.6138860499
  N         3.1105873583        6.2142903022       18.1218366458
  C         3.2581439944        8.4305054660       17.0150178555
  H         3.4380735859       10.5578925976       16.4649618403
  H         1.0420892688        8.8937138812       28.1341620363
  H         0.2457444722        9.0329976378       29.5605632361
  C         1.7029840413       10.4687807233       29.4118175142
  H        -1.6825974487        8.8253216856       27.2059786951
  H        -2.0411561076        8.8326359224       28.8938590993
  C        -3.2389217145       10.1705023893       27.5869724892
  H        -1.4939964777       11.4552004002       30.8903097255
  C        -1.6231162889       14.3447115016       31.2968381547
  H         5.5229391500       15.0822305176       19.9777467504
  H         5.0372448197       13.3805764481       19.7391773254
  C         7.1403563066       13.6786665368       19.4269190114
  C         3.4424989000        7.8380818369       15.7207025988
  H         2.2250726109       11.0737974815       28.7184750318
  H         1.2448068594       11.0218311975       30.1982987495
  C         2.8376470668        9.5812728136       29.9300721089
  H        -3.1309669147       10.7764238010       26.6977655754
  H        -3.6277760461       10.8051054120       28.4178094265
  C        -4.3447378960        9.1538755831       27.1758374307
  C        -1.6889863571       15.7258831658       31.4126250781
  C        -1.6558088327       13.5868561405       32.5972584906
  H         7.9355593465       14.2773261166       19.8163103660
  H         7.3218605222       12.6050029662       19.6680079317
  C         6.8866619468       13.8398949731       17.8961083782
  H         3.4897683349        6.7685635824       15.8197353014
  C         3.7804879917        8.3397377312       14.5191337715
  H         3.1282303070        8.9618938606       29.0711443725
  H         2.5082573518        8.8285445838       30.6319313323
  C         4.0444230397       10.2901757672       30.3630605975
  H        -3.9413836041        8.6571175898       26.3188989358
  H        -4.5450589103        8.5099159264       28.0744323346
  C        -5.6045645090        9.8784333955       26.7764379029
  N        -1.6980218358       16.6218002802       30.3348289078
  C        -1.9182057171       16.3373001334       32.6371595767
  C        -1.9673138765       14.2027881477       33.8274360697
  H        -1.7621412544       12.5239129034       32.5845816806
  H         7.7992384548       13.7771628721       17.2379147688
  H         6.2043272500       13.0354653740       17.5326727064
  H         6.4212141111       14.8471416193       17.7866260810
  S         4.1619987828        9.8857430721       14.0757254239
  C         3.8037904775        7.3256642307       13.3806418621
  H         4.0627485403       11.2166611728       29.8856456744
  H         3.9979495000       10.4659343034       31.4696154591
  C         5.3333442365        9.5339748147       29.8963400621
  H        -5.7212059689       10.7722793244       27.4078233533
  H        -6.4231873654        9.1857400370       26.9617492140
  C        -5.6099053543       10.3285940173       25.3393283884
  S        -1.6551426697       18.1050295604       30.9882988753
  N        -1.8695949897       17.7497898820       32.5434206026
  C        -2.1110017896       15.6615757844       33.8371481822
  H        -2.0776961408       13.6197392983       34.6861450937
  C         4.3404405269        9.2972968012       12.4861920313
  N         4.2769719672        7.9746667212       12.3300441516
  O         3.4852927819        6.1709756678       13.5565430860
  H         6.2331692182       10.1879257031       30.0838933363
  H         5.4183272316        9.2354775838       28.8722139401
  C         5.4349560418        8.2463248585       30.7522719027
  H        -4.6667021966       10.6939716294       25.1849988801
  H        -5.7720818852        9.4413416410       24.7098064120
  C        -6.6727733859       11.3827665387       24.9602447683
  C        -2.4733501236       16.4570355332       34.9878031245
  S         4.8600032677       10.1323652281       11.0685380299
  C         4.3963868854        7.2268743604       11.0314734899
  H         5.6465339930        8.5274066872       31.7252828705
  H         4.4798509412        7.7200164946       30.9313213697
  C         6.4620184074        7.2805057030       30.1493688598
  H        -6.4038204248       11.5656233528       23.9244703930
  H        -6.7170017423       12.2752167173       25.5383278512
  C        -8.1445795588       10.8432202880       24.8728658548
  H        -2.3283280086       17.5544783480       34.8440572810
  C        -2.8398577031       16.1516046971       36.2427662375
  H         5.2381456323        7.5408324439       10.5043194304
  H         4.6409843438        6.2088311495       11.0520047073
  C         3.0708337777        7.3691997471       10.2232940958
  H         7.4688263365        7.7634151451       30.0492766068
  H         6.1149412586        7.0373126280       29.0997317298
  C         6.5831521586        5.9317831827       30.9193464466
  H        -8.6999622023       11.4073536258       24.1577767288
  H        -8.2504791748        9.7934563621       24.5426054877
  C        -8.8820023265       11.1335931063       26.1308604572
  S        -3.2373829548       14.5021639498       36.8403992556
  C        -3.0281820136       17.2155154860       37.2347453527
  H         3.0018490021        8.3281836130        9.7558383004
  H         2.9311024517        6.6502528045        9.4087005788
  H         2.2158317960        7.4402371920       10.9227113343
  H         7.5220814546        5.9244404742       31.4022354527
  H         6.4949077098        5.1554351705       30.1859543002
  H         5.8339383969        5.7801038038       31.6476790842
  H        -8.9051529944       12.1507323925       26.4270868612
  H        -8.4438933272       10.4830300124       26.9242039848
  H        -9.9086359342       10.8508676072       26.0791632587
  C        -3.6017747074       15.2768643802       38.4019028274
  N        -3.5436032376       16.6380577647       38.3605133825
  O        -2.6877813583       18.3885757488       37.0381888377
  S        -4.4420093671       14.3986099817       39.6672744306
  C        -3.4967104643       17.3716104455       39.5352232558
  H        -3.7916057591       18.4117069173       39.3897283243
  H        -4.1698890597       16.9418720266       40.1935128219
  C        -2.1563374439       17.1898157357       40.1459125785
  H        -1.9263649973       16.1251519394       40.1819069142
  H        -1.3406227676       17.7928907722       39.5634220447
  H        -2.2262911206       17.5336839823       41.1702692842
