352
i=
  H         4.5862056433        1.8172247694       12.9552403558
  C         3.9255879066        2.7058641676       12.8995933752
  H         4.5662443456        3.5982035617       12.9203693220
  C         3.0871252845        2.6862303293       11.6167290847
  C         3.0289603426        2.6894534167       14.2087236362
  C         4.0297789694        2.8475855867       10.4055873320
  H         2.3570827088        3.5371903048       11.6105145370
  H         2.3290425622        1.8533578526       11.7525777771
  H         1.9691058697        2.7047571802       13.9529103786
  H         3.3121012560        3.5566932962       14.8428051707
  H         3.2907512400        1.8980287954       14.8599760642
  C         4.3399593349        1.6785988173        9.6462555226
  H         3.5880233059        3.6248127776        9.8959466063
  H         4.8826652680        3.2292615184       10.7948968433
  C         4.9612910135        1.9469387309        8.2648688079
  H         3.3781608725        1.1988677668        9.5786627562
  H         4.9836901582        1.0919996891       10.3003935201
  C         6.2493042967        2.7929995659        8.1580954497
  H         4.1468427461        2.1534873646        7.5643483404
  H         5.2520656940        0.9907492956        7.9173547962
  C         7.5195149160        2.0751081087        8.5957886279
  H         6.3657443378        3.1857182481        7.1017587595
  H         6.0910001068        3.6689217523        8.8560697124
  C         8.8273270217        2.9978259775        8.7759643316
  H         7.7571919326        1.2229793414        7.9113687701
  H         7.3550850677        1.6329252871        9.5934844373
  C         8.4447415315        4.3325644027        9.3893744077
  C         9.3420319611        3.7382353840        7.5776478429
  C         9.9955700321        2.3589242399        9.5851580928
  C         8.7541820317        5.4651296489        8.6478827520
  C         7.9549503981        4.7572018902       10.6280963510
  C         9.2151614350        5.0955851076        7.4123186172
  C         9.9251065474        3.1052812094        6.4734108969
  H         9.5551764737        2.0397875773       10.5906514573
  H        10.3558751992        1.4641565035        9.1348321339
  C        11.1412223319        3.3221543266       10.0318088506
  S         8.5341016543        6.9351766659        9.4827445488
  C         7.9941163788        6.0975490257       10.8511694691
  H         7.8715136057        3.9773667923       11.3905163171
  C         9.7391971514        5.7211959502        6.2737538026
  H         9.9472878377        2.0011157148        6.5285801247
  C        10.3327361884        3.7423145769        5.3119312519
  H        10.6729693963        4.1790635440       10.5101207180
  H        11.6421168184        3.7236370049        9.1762583508
  C        12.1857239001        2.7474128052       10.9891815783
  C         7.6754675141        6.7783861246       12.1572681394
  C        10.2972475859        5.0754957619        5.2013137690
  H         9.5800841407        6.7897316580        6.1213483958
  C        10.7491151187        3.3565905684        4.0571095349
  H        13.0914110010        3.2649199385       10.8036669889
  H        12.6008326092        1.7903429101       10.6205959347
  C        11.9275688165        2.8707978213       12.4740442153
  C         7.6495415015        8.1479289507       12.4129557105
  C         7.2094557724        5.9187279615       13.2168410702
  C        10.6721678720        5.7464260048        3.9633485463
  C        11.0128372555        4.4413464527        3.2635711724
  S        10.9033194410        1.8336275171        3.3436826281
  H        12.4178306651        3.7854208269       12.8011845258
  H        10.9287632822        3.1586454102       12.5279757426
  C        12.3579463196        1.6718793485       13.4055413523
  N         7.8845561620        9.1101593440       11.4393697627
  C         7.3477913445        8.6432774073       13.6743769751
  C         6.8922749551        6.3767810861       14.4558910463
  H         7.2451791055        4.8579050198       13.1504111498
  C        11.9449216270        6.5312529972        4.1080058024
  C         9.5570996608        6.4727829597        3.1417809703
  C        11.4196477808        4.0659982931        1.9802420880
  C        11.3112939727        2.6715206252        1.8692440593
  H        13.4008293905        1.4591925759       13.3706098371
  H        11.9065444410        0.7970196891       12.9128279582
  C        11.8393751416        1.7943241494       14.7774203537
  S         8.0093834270       10.4712478703       12.2745905508
  N         7.5372895451        9.9771530085       13.7663361311
  C         7.0401771078        7.8011685362       14.7869687123
  H         6.5847779916        5.6986633354       15.2301163898
  H        11.7390354359        7.4217564863        4.7153030252
  H        12.2136082021        6.7763213443        3.0947871640
  C        13.0701351635        5.6216531208        4.7084745591
  H         9.0453555463        7.2012602007        3.7523266217
  H        10.0501200611        7.0656393200        2.3224854258
  C         8.2965129900        5.5639870207        2.7613786592
  H        11.5736440271        4.8403091950        1.2229445838
  C        11.6361082381        1.8343965281        0.5914697306
  H        10.8656018502        2.1736379252       14.7849704663
  H        11.6961825468        0.8636891467       15.2329786367
  C        12.7432219047        2.5413062926       15.7507225868
  C         6.8192326606        8.5144058890       16.0477387840
  H        12.6811933825        5.1292617539        5.7028831288
  H        13.3316252035        4.7898285414        4.0716372911
  C        14.3133426757        6.5411722276        5.0250438794
  H         7.9809776300        4.9697877465        3.6655575310
  H         8.7046676072        4.8371049675        2.0544119807
  C         7.2535819558        6.3325084079        1.9527358004
  C        11.8446477607        0.4558871739        0.4740759929
  C        11.8704918296        2.6836827007       -0.6738942450
  H        12.3313178930        3.5800086324       15.7329225706
  H        13.7595576627        2.5721197130       15.4217289456
  C        12.7983307878        2.2094608819       17.2836981535
  H         6.8222453644        9.5890615241       16.0670457244
  C         6.5397347689        7.9697061131       17.2854521883
  H        14.1214235404        7.2331745169        5.8645348327
  H        14.5080635663        7.1849825377        4.1394808660
  C        15.5598253611        5.6697961980        5.2393591265
  H         6.9668803752        7.1663721314        2.5709779504
  H         7.7089259719        6.7563518669        1.0299299628
  C         6.1050943407        5.3969975571        1.4180069101
  N        11.7124304402       -0.5202171927        1.4126884799
  C        12.1862677242       -0.0814589918       -0.7896778501
  C        12.2084278874        2.0797542163       -1.9236356418
  H        11.8144622699        3.7137145356       -0.6428474121
  H        12.3252035220        3.1204428329       17.7555962649
  H        13.7364040075        1.9779065102       17.8169574677
  H        12.1320231188        1.3888015443       17.4623966039
  S         6.0434051483        6.3992797473       17.5916534799
  C         6.6178008090        8.8847717502       18.4207455340
  H        15.2459221565        4.9436185084        5.9842856347
  H        15.8933321198        5.1206700620        4.4429454776
  C        16.7753000034        6.4320429848        5.8754504046
  H         5.8496779308        4.8363762792        2.3107429946
  H         6.4934111874        4.6790342779        0.6787502282
  C         4.9184936659        6.1753530338        0.9468185083
  S        11.9639894599       -2.0132345495        0.7121686508
  N        12.3322746542       -1.5082896325       -0.7896920416
  C        12.3734133134        0.6030584753       -2.0028195681
  H        12.3675560206        2.7719563171       -2.7464759026
  C         5.9479316725        6.8698316454       19.3124201121
  N         6.1751098223        8.2193218933       19.4969045298
  O         7.1650935864        9.9832053282       18.4680243927
  H        17.4166301641        6.7011819346        5.0531554187
  H        16.5397483782        7.3991210756        6.2618807315
  C        17.4320279317        5.5814664115        6.9405107887
  H         5.2802399884        6.8259868876        0.1856348833
  H         4.1989296020        5.4460035064        0.4525140073
  C         4.1669049261        6.8839739249        2.0692981964
  C        12.7445387487       -0.1780395007       -3.1433239832
  S         5.4767523000        5.8440586767       20.7494948102
  C         6.2673987549        8.8476719666       20.8603828576
  H        16.8219004057        5.4600776410        7.7530751915
  H        17.6353832033        4.5864065225        6.5402645613
  C        18.6818033700        6.3046187395        7.4685550953
  H         4.9850400868        7.1286946038        2.7789464792
  H         3.4150997167        6.2117376053        2.4367402009
  C         3.3950548434        8.1575090225        1.6695704136
  H        12.2087685227       -1.0718148339       -3.1761853668
  C        13.3347725020        0.2008469573       -4.3105963988
  H         5.5932627339        8.4381991459       21.6641233182
  H         5.8869054342        9.8422535996       20.8099845088
  C         7.7343851734        8.9995673517       21.4098853218
  H        19.1546199460        5.7614650012        8.3456422391
  H        18.4354406802        7.2407017677        7.8485352146
  C        19.7706687923        6.4489718906        6.4588988645
  H         3.1384543173        8.2022477665        0.5955140518
  H         2.4157025168        8.1747879790        2.1497153077
  C         4.0579733759        9.4946543238        2.1045742365
  S        13.8265040802        1.7575487540       -4.7038367477
  C        13.1997879834       -0.8012370308       -5.4179269574
  H         7.7746825671        9.9152211194       21.9774788632
  H         8.4961933814        8.9510335585       20.6313245272
  H         7.8505540983        8.2251650482       22.1383689315
  H        20.2332521980        5.5003437555        6.2507492767
  H        19.3363282448        6.9414450465        5.5280788980
  H        20.5212928282        7.0741200836        6.8779318307
  H         4.6333426797        9.3994993165        3.0413028231
  H         4.8393637952        9.7230194562        1.3703584716
  H         3.3976832439       10.3328913161        2.2225203688
  C        14.1045358745        1.0782733388       -6.3316509290
  N        13.7945662373       -0.2624799654       -6.4831472127
  O        12.6985125827       -1.9375049468       -5.3892837054
  S        14.7587819945        1.9661734618       -7.7965491070
  C        13.7252915120       -0.9900421647       -7.7907734456
  H        13.9570659193       -2.0535941236       -7.6907883508
  H        14.5669579296       -0.6800511253       -8.4274791234
  C        12.4527920255       -0.6900168976       -8.5441364136
  H        11.7699424663       -0.0588364772       -7.9586499710
  H        11.9835281020       -1.6205254168       -8.8915945666
  H        12.6525186179       -0.3032250716       -9.4420420915
  H        -3.9640989950       14.4577725516       15.9625133724
  C        -3.5349325225       13.4394988298       16.1002184953
  H        -4.3561831319       12.7890584171       16.4101021114
  C        -2.5751294141       13.5089720202       17.2998344150
  C        -2.8899870771       13.0648285834       14.7881282794
  C        -3.3102711657       13.5348572134       18.6253263001
  H        -1.8926329817       12.6117212708       17.3081209726
  H        -1.9954631027       14.4386677624       17.3071969108
  H        -3.6690739787       12.5412356772       14.1492722775
  H        -2.6070796427       13.9819011094       14.3040198452
  H        -1.9746984227       12.4810501453       14.8421635841
  C        -2.1622111142       13.5734947682       19.6596221469
  H        -4.0676876533       12.7138437473       18.6734087183
  H        -3.8695230018       14.4671534391       18.8582232260
  C        -2.5492622251       13.4989163091       21.1276276898
  H        -1.4250443734       12.8010770818       19.3485613386
  H        -1.6962111792       14.5112475556       19.4610454091
  C        -1.4093507448       12.9884384760       22.0552654940
  H        -3.3621186476       12.7246927452       21.2669405848
  H        -2.8666551199       14.4862171136       21.4043307670
  C        -0.3748384177       14.0107288315       22.3398826879
  H        -1.7822528207       12.5717899578       23.0208883019
  H        -1.0688623335       12.0105704195       21.6277176496
  C         0.8647680826       13.3770739569       22.9842377492
  H        -0.1007454524       14.3592565075       21.3243663024
  H        -0.6990985426       14.8921666250       22.9082613269
  C         1.3912876076       12.0736188555       22.3037583474
  C         0.5835904529       12.5792305555       24.2767515428
  C         1.9565801853       14.4458436041       23.3035639710
  C         1.3139178383       10.9354757148       23.1484095950
  C         1.8985134467       11.7498854266       21.0234499416
  C         0.8659246792       11.2483398896       24.4090684437
  C        -0.0146845462       13.0574405909       25.4042806572
  H         2.1717464086       15.0436066597       22.5021398345
  H         1.6538886854       15.0493034204       24.1383263209
  C         3.3079898323       13.8443535553       23.7194228391
  S         1.6653641134        9.5200134347       22.3326970167
  C         2.0652664207       10.4277134371       20.8530164050
  H         2.0950130122       12.6255258576       20.3325236022
  C         0.5341343254       10.5465520258       25.5565220092
  H        -0.3452274793       14.0879955125       25.4734105536
  C        -0.1393551174       12.4013091599       26.6001575462
  H         3.7098717863       13.1574771512       22.9955415833
  H         3.1666206736       13.2493196978       24.6054428218
  C         4.4000378009       14.8543117244       24.0343774663
  C         2.5514700456        9.7349172693       19.5917644529
  C         0.0639808706       11.0684420868       26.7305059041
  H         0.6293699630        9.3974790815       25.5786550753
  C        -0.5790587816       12.7961095694       27.8453956873
  H         5.1923546149       14.5016771438       24.6427042721
  H         4.0890417696       15.7218184046       24.5839698595
  C         5.0304219010       15.3664224183       22.6951854338
  C         2.4764131366        8.3546923852       19.3427768404
  C         3.1883115604       10.5391661941       18.5022414843
  C        -0.3078615163       10.3544439441       27.9488193772
  C        -0.6553770380       11.6709241722       28.6778676979
  S        -0.7838120513       14.2998168533       28.5614849488
  H         5.3422905700       16.3884639104       22.8370450280
  H         4.3966993623       15.2574732065       21.7759645334
  C         6.4044036820       14.6654339124       22.3970320271
  N         1.9673591508        7.4178432048       20.2282316854
  C         2.8227212711        7.7520822687       18.1667711763
  C         3.4074665065        9.9092885244       17.3238437950
  H         3.3388654298       11.5985113531       18.4901935404
  C         0.9075390424        9.6329389996       28.6071996647
  C        -1.4723530895        9.3379749558       27.6880273074
  C        -1.1044739272       12.1338403730       29.9360487449
  C        -1.0674088613       13.5053456954       30.0066097766
  H         6.9532527504       15.3820670791       21.7979093698
  H         6.9711002827       14.5512946724       23.3105620204
  C         6.4624523419       13.3015190668       21.8383194738
  S         2.1902545268        5.8818093785       19.6973647285
  N         2.5922946188        6.3656543780       18.2382024622
  C         3.1619044414        8.5120115179       17.0673275991
  H         3.8098238841       10.5477941036       16.5262790661
  H         1.2713724234        8.7418535891       28.0545939178
  H         0.6825026766        9.4107497600       29.6465701225
  C         2.0665712554       10.5744466281       28.8473081948
  H        -1.1795825236        8.5164141467       27.1247795320
  H        -1.7423450418        9.0699321078       28.6685314776
  C        -2.6995195772       10.0966348453       27.1485866322
  H        -1.3665626053       11.3977635986       30.6476586256
  C        -1.2926292828       14.2775944431       31.2532975293
  H         5.8216480894       12.5642455448       22.3164313902
  H         7.4526538505       12.8449221176       21.9433930439
  C         5.9795073101       13.2104253633       20.3462654064
  C         3.3367691402        7.8650316457       15.8134217618
  H         2.3784826836       10.9312543018       27.9040479691
  H         1.6772279491       11.3547240065       29.5059171660
  C         3.2034697632        9.8021775088       29.5677072421
  H        -2.6129994613       10.4540930959       26.1401908354
  H        -2.9210932863       10.9629613550       27.7419262876
  C        -4.0130168940        9.2783229103       27.2396651028
  C        -1.3936226608       15.6735859330       31.3445117242
  C        -1.4279505432       13.5193869684       32.5722649697
  H         5.8026745519       12.1176437751       20.1797457131
  H         4.9896875052       13.6848774637       20.3681678773
  C         6.8797764003       13.7446337176       19.2264968199
  H         3.3871054121        6.7522062708       15.7651626117
  C         3.6307434305        8.2804846818       14.5509755409
  H         3.5791895682        8.9691718032       28.9614787803
  H         2.7566907430        9.4108097529       30.5112407403
  C         4.2229012121       10.7702734061       30.2321388124
  H        -3.9602759711        8.5497845729       26.4735075828
  H        -3.9523731186        8.8516600744       28.2089229745
  C        -5.3016533119       10.1544523703       27.1516331891
  N        -1.2416457214       16.6488411128       30.3006072731
  C        -1.6904401046       16.2671782045       32.5791371719
  C        -1.8825895362       14.1139107666       33.7199504882
  H        -1.4243157749       12.4964252213       32.5748663883
  H         7.8606699418       13.8904624099       19.6349808714
  H         6.9794757865       13.0528255595       18.3434875734
  H         6.5296151778       14.7851794597       18.9964172938
  S         3.9955567716        9.8655011220       14.1398598519
  C         3.5954026563        7.2940351715       13.4307295393
  H         4.3540364116       11.5779769666       29.5308470739
  H         3.7062775115       11.1349562459       31.0997836563
  C         5.6579616678       10.2635010530       30.6428922634
  H        -5.1855895495       11.1094356808       27.6179423589
  H        -6.1532025432        9.7325773936       27.7793446425
  C        -5.9078023830       10.1453658188       25.7401805120
  S        -1.2903759373       18.1050592216       30.9998722873
  N        -1.7062510218       17.6731673040       32.4569204387
  C        -1.9995462436       15.6452910807       33.7952563311
  H        -2.1208075359       13.4281311142       34.5154388991
  C         4.0463569212        9.2652549891       12.4753430788
  N         3.9896215568        7.9012031870       12.3653168958
  O         3.2976195232        6.1198176380       13.5163108537
  H         6.0969255003       10.9724522575       31.3621610455
  H         6.3398283082       10.2901452108       29.8110242449
  C         5.6228124746        8.9140514834       31.3248170093
  H        -5.0527089324       10.4071170747       25.0197725916
  H        -6.2747176472        9.1299957876       25.5112089379
  C        -7.1224222730       11.0624850616       25.4715183901
  C        -2.3883103645       16.3943185638       34.9148919090
  S         4.3453977704       10.1684879427       11.0052271028
  C         4.1240425778        7.1728331284       11.0606175260
  H         6.1119950535        9.0836147357       32.2656720803
  H         4.6420948753        8.6261070858       31.6386444248
  C         6.4077870776        7.7706071586       30.6685222254
  H        -6.7570755441       12.0259992118       25.1571393776
  H        -7.6709688559       11.0416011874       26.4169805936
  C        -8.1135479948       10.5664455146       24.4342207839
  H        -2.3101043763       17.4298582985       34.7176231361
  C        -2.9134686089       16.1951549354       36.2173379636
  H         4.9037257176        7.6804932487       10.5423512143
  H         4.4920208320        6.1302675235       11.1429964931
  C         2.8180080260        7.0865625979       10.2645602582
  H         7.2982154288        8.2090556877       30.3164070606
  H         5.8497053947        7.3115292059       29.8298910813
  C         6.7796365463        6.6967448994       31.7554259711
  H        -8.3677908169       11.3839444963       23.7441560954
  H        -7.6860185590        9.7084999244       23.9297646522
  C        -9.4436574526       10.2542160084       25.1326355497
  S        -3.4076111847       14.6905294850       36.8461974439
  C        -3.1278021393       17.3635681730       37.0709544591
  H         2.9965122617        6.5689642464        9.3563221606
  H         2.1241451441        6.4939038575       10.9260073405
  H         2.3711921587        7.9928760312       10.0085107288
  H         5.9738297252        6.4784399112       32.4090810131
  H         7.5742941691        7.1601195705       32.3589129201
  H         7.0915128109        5.7784434897       31.1352486155
  H        -9.9675415702       11.0817887547       25.6313622068
  H        -9.4076758996        9.4404437780       25.7936787098
  H       -10.0730702386        9.8239676419       24.3229824226
  C        -3.7309112037       15.5854144655       38.3012033964
  N        -3.5609220781       16.9783862997       38.2265701384
  O        -2.8082680643       18.5331763355       36.7916648377
  S        -4.5827731828       14.9743137675       39.6931599265
  C        -3.6552553073       17.8984749568       39.3731642729
  H        -4.0066729072       18.8086247682       38.9105609542
  H        -4.3506801846       17.6149020155       40.1262865358
  C        -2.3394683683       18.1589885437       40.0646025175
  H        -2.0313268555       17.2021273054       40.4219560305
  H        -1.6157380098       18.4657485978       39.4354746201
  H        -2.4784498924       18.8537090801       40.8568623405
