352
i=
  H         5.0722569123        1.7912378312       12.5378786852
  C         4.1811053364        2.3731560282       12.5877709881
  H         4.5064982589        3.3649813713       12.4588545923
  C         3.2425256016        2.1015884533       11.4462059135
  C         3.5079833420        2.1033202007       13.9187455185
  C         4.0334250849        2.1833732696       10.1269218170
  H         2.3786250356        2.8382792699       11.5769102496
  H         2.6974892557        1.1523094586       11.4921399633
  H         2.8926803197        1.1902701235       13.8657245582
  H         2.9010517846        2.9509218099       14.3191721985
  H         4.2581650508        1.8884480113       14.6642174835
  C         4.8226870620        0.8770711523        9.9315783256
  H         3.2954442808        2.2138171196        9.3266023858
  H         4.6900950810        3.0443981837       10.1173953793
  C         5.4454354041        0.8699597397        8.5416212516
  H         4.1311791724        0.0360971560       10.0973073641
  H         5.6320235716        0.7506315081       10.6747740510
  C         6.6202965267        1.9565235611        8.4499253717
  H         4.5830976012        0.9589546176        7.8243955968
  H         5.8114752513       -0.1221452743        8.2371963302
  C         7.9943181573        1.3631523205        8.8957672723
  H         6.7981900983        2.2172950184        7.4116364768
  H         6.3306764902        2.8369784714        9.0725058013
  C         9.1178332051        2.3641467249        9.2821621102
  H         8.3687103881        0.6732756155        8.1825503038
  H         7.8007913306        0.6807570895        9.7138896997
  C         8.6734535165        3.6713302480        9.9782560136
  C         9.5715076200        3.1347768693        8.0528966252
  C        10.2836175149        1.7349004469       10.1175156812
  C         8.9680131813        4.8185092351        9.2583541263
  C         8.0843198676        4.0106967024       11.1907059551
  C         9.3596589065        4.4788288299        7.9596610630
  C         9.9478466898        2.5519815960        6.8236738220
  H         9.9160030412        1.2128233371       10.9843369492
  H        10.7529430815        0.9911473720        9.4164479459
  C        11.4590818055        2.6837568855       10.5109581232
  S         8.5677036314        6.2540436576       10.0437050708
  C         8.0504204646        5.3824187327       11.3728420513
  H         7.9161313933        3.2218617006       11.9024750889
  C         9.5881056164        5.1523580152        6.7743780981
  H        10.1064652931        1.4457794806        6.7172721203
  C        10.1616542364        3.2550552168        5.6425547002
  H        11.1109128008        3.6299832352       11.0877463211
  H        11.8818657581        3.0537214745        9.6405683887
  C        12.6193264340        1.9599372221       11.1608570673
  C         7.7667742722        6.0508562459       12.6723308323
  C         9.9852960304        4.6167813995        5.5816880649
  H         9.4034148129        6.2022683204        6.8241974879
  C        10.5194771188        2.8476266091        4.3564556258
  H        13.3719344520        2.6987932987       11.3828286653
  H        12.9841540572        1.2050611402       10.5067229869
  C        12.3275855134        1.3643100075       12.5522534584
  C         7.6743032507        7.4455566468       12.9275827287
  C         7.3661431694        5.2363790627       13.8391900884
  C        10.2526997187        5.2831768846        4.2244340959
  C        10.6091803874        3.9708461133        3.5406403632
  S        10.8912060706        1.3164352079        3.6062012106
  H        11.5259154413        0.6644768470       12.5524165567
  H        13.1787609979        0.8851944687       12.9171506108
  C        11.8090182790        2.4399611595       13.4295170889
  N         7.7961936217        8.4032228866       11.9137712831
  C         7.3662631466        7.9734927208       14.1167100241
  C         7.1511207648        5.8065776707       15.0867275388
  H         7.1419905091        4.1762484338       13.6696821561
  C        11.5154656331        6.1948988167        4.3344680715
  C         9.0378687931        5.9950082013        3.6216642649
  C        10.9514731484        3.5077123919        2.2640413612
  C        11.1346664840        2.1777997090        2.1625822448
  H        10.8325074298        2.6385561202       13.0474133566
  H        12.3706446012        3.3788058651       13.3438343179
  C        11.5246199589        1.8517357108       14.8147052359
  S         7.6501536978        9.9024300948       12.4823128222
  N         7.3483005861        9.3956497771       14.0120529232
  C         7.2681529060        7.2512835317       15.3207181993
  H         7.1247996179        5.1587555727       15.9353499780
  H        11.2954402041        7.2635354381        4.4403919225
  H        11.9712718957        6.1306105631        3.3385778308
  C        12.5176367197        5.7884262504        5.3869184869
  H         8.7014474965        6.9075020744        4.1288216777
  H         9.2598210802        6.2743375469        2.6601616371
  C         7.8129961817        5.0736365547        3.6367597605
  H        10.9719990636        4.2415429395        1.4525095605
  C        11.5577591641        1.4367637906        0.9192767391
  H        10.4914428927        2.1818175317       15.0221238953
  H        11.5313191954        0.7620729219       14.6842474186
  C        12.5275314010        2.3323300693       15.8399716420
  C         7.0432827685        7.9098880466       16.5718902634
  H        12.0396986757        6.1290257968        6.3383714616
  H        12.6180414694        4.7254193179        5.4827640858
  C        13.8708354025        6.4667566957        5.3469930151
  H         7.5511056577        4.8353844060        4.7010773670
  H         8.0474334349        4.2163727199        3.0622299589
  C         6.5178409848        5.7649113239        3.1030841091
  C        11.8397074796        0.0133180637        0.6895175903
  C        11.7766673672        2.2560706186       -0.2722016573
  H        12.4352189500        3.4009728635       16.0893401737
  H        13.5884175614        2.2557217263       15.3654482357
  C        12.3537703484        1.5379704809       17.1190345527
  H         7.3192078505        8.9316577502       16.5691511647
  C         6.6865793125        7.5049559549       17.8077924195
  H        13.7334026719        7.4872689347        5.4865537603
  H        14.3117256611        6.2802163273        4.3770981144
  C        14.8838516809        5.8651407591        6.3277001377
  H         5.6222652182        5.1176812051        3.1873221527
  H         6.2133282611        6.5935682077        3.8130072459
  C         6.5202271829        6.3844914831        1.6492265106
  N        11.5728927384       -0.9993486976        1.6327690954
  C        12.2910921099       -0.4945223338       -0.5103863817
  C        12.3033077857        1.7207844778       -1.4377920655
  H        11.5394385132        3.3186824196       -0.2151180071
  H        11.7001341216        0.7570754874       17.0327964409
  H        12.0156304162        2.1805242866       17.9575995933
  H        13.3187485938        1.1126464925       17.3910248010
  S         6.2468531314        5.8667471045       18.2499136589
  C         6.5492293641        8.4224325019       18.9349807539
  H        14.8702451468        6.4198928655        7.3391368829
  H        14.6661303744        4.8450034100        6.5711910186
  C        16.2608953552        5.8720723057        5.7801976163
  H         6.9837975045        5.6581946413        0.9699273577
  H         7.2238852772        7.1716869633        1.4901178708
  C         5.0743971747        6.6714951185        1.2117272368
  S        11.7567873635       -2.4295520193        0.9686737320
  N        12.2741078836       -1.9021147042       -0.4875049934
  C        12.5171672799        0.2660297948       -1.6184457349
  H        12.5259330268        2.3773705517       -2.1610254450
  C         6.0483216330        6.4407886723       19.9206905433
  N         6.0963511047        7.7613570484       20.0084689599
  O         6.6567650103        9.6601341663       18.7593682662
  H        16.2246121440        5.3471683978        4.8580628659
  H        16.6037235800        6.9032375207        5.6877111135
  C        17.1796120996        5.0070975235        6.6465390612
  H         5.1036326433        6.6902850245        0.1771805029
  H         4.3964018714        5.8295652549        1.5082659847
  C         4.5443087698        7.9750295941        1.6113665968
  C        12.9313116219       -0.4431147290       -2.7345489883
  S         5.5323063392        5.5040870709       21.2288327202
  C         6.0803468034        8.4783447651       21.3172767962
  H        16.6044579290        4.7841034827        7.5450380421
  H        17.4608939457        4.0130262547        6.2155644367
  C        18.4141394739        5.7463855979        7.0791543531
  H         5.0175582509        8.2734600132        2.5119198024
  H         3.5659704791        7.9485538628        2.0373386354
  C         4.7410698303        8.9995365057        0.5212482868
  H        12.5153226773       -1.4326791317       -2.7850858270
  C        13.5222581044       -0.1064212693       -3.8960629053
  H         5.6769925762        7.8597656088       22.1750239389
  H         5.4648401568        9.3567299485       21.1221325864
  C         7.4591140561        9.0063532325       21.7748845352
  H        18.6040442444        5.3636945558        8.0882017703
  H        18.2383778708        6.8136548134        7.1289295073
  C        19.6612554023        5.4656087686        6.2739798535
  H         5.6630458388        8.7303816551       -0.0236474713
  H         3.9628918858        8.9309691823       -0.2077204617
  C         4.9466452115       10.3767734113        1.1299808683
  S        14.1636788604        1.4488960476       -4.3643841725
  C        13.5655190576       -1.1912552233       -4.8933746023
  H         8.0991832293        8.1032659581       21.9241862088
  H         7.3869955519        9.3919529561       22.8168283522
  H         8.0707717760        9.6339001691       21.0975286444
  H        19.6125641256        4.5651322672        5.6857257658
  H        19.8206682817        6.3547959484        5.6179150427
  H        20.5414926605        5.5419438810        6.9100701866
  H         5.9815722547       10.5538934108        1.4116903490
  H         4.5087633415       11.1933702586        0.4786776078
  H         4.4079893956       10.5428709856        2.0668319185
  C        14.3748074077        0.6315653850       -5.9870989211
  N        14.0995808121       -0.7312945991       -6.0496774367
  O        13.1583435118       -2.3435294461       -4.6969641181
  S        15.2341087634        1.4153433419       -7.3259438767
  C        14.1453545727       -1.5301338697       -7.2647130873
  H        14.2306263196       -2.5970680988       -7.1522613431
  H        14.9792254330       -1.2006310100       -7.9244512999
  C        12.8668072305       -1.2917167791       -8.0042692628
  H        11.9704134491       -1.2859039840       -7.3998098701
  H        12.7412028375       -2.1189595782       -8.6126469167
  H        12.9264103392       -0.4757787202       -8.7117615983
  H        -3.6000068965       14.2908017358       16.1983477187
  C        -2.8894980375       13.4242907885       16.2833657703
  H        -3.5772303532       12.6198942434       16.4691148485
  C        -1.8367752877       13.5826470811       17.4487291660
  C        -2.2300886301       13.3867064471       14.9280235947
  C        -2.5368110236       13.9731109678       18.7734443435
  H        -1.3416823132       12.6458036187       17.5724036878
  H        -1.0885934561       14.2589468936       17.1792577392
  H        -2.0540538009       12.3349002777       14.5582995569
  H        -2.9201930263       13.9916225254       14.1962871423
  H        -1.1939796388       13.8974102881       14.9055059772
  C        -2.4252595772       12.8076422619       19.7835416241
  H        -3.4915622399       14.5134288623       18.5997554591
  H        -1.8685209931       14.7102552442       19.1756475662
  C        -2.5292318142       13.3331079287       21.1945297708
  H        -3.2032816366       12.0535526899       19.6851586784
  H        -1.5345253638       12.3014479652       19.6584605078
  C        -1.3504370202       12.8444357497       22.1089626526
  H        -3.4904247170       12.9552858383       21.5192380538
  H        -2.6408150835       14.3762537055       21.2118216098
  C        -0.1608855061       13.7761932025       22.3037496730
  H        -1.7542757856       12.6084247678       23.0645058482
  H        -1.0328437133       11.8161729620       21.8052958870
  C         1.1441099559       13.1470695960       22.9041773086
  H         0.0207412099       14.2423754860       21.3074874554
  H        -0.4334632369       14.4645737650       23.0701265119
  C         1.5462531084       11.7644421766       22.2785113744
  C         0.7932000811       12.5057911589       24.1957727718
  C         2.3352984202       14.1718880007       22.9667667321
  C         1.3551970180       10.7171096346       23.1367890880
  C         2.1868696039       11.3106170643       21.1349739706
  C         0.8556318490       11.1656567050       24.2944519960
  C         0.5831240097       13.1358332775       25.4301939123
  H         2.5188983722       14.4483868221       21.9054904481
  H         2.1081013719       15.0418201979       23.5963562296
  C         3.5684614870       13.4250502686       23.5326749751
  S         1.8716555565        9.1519536718       22.5231933001
  C         2.2657876655        9.9773130356       21.0225540382
  H         2.2947889505       11.9812414071       20.2853471198
  C         0.5907056403       10.5702554946       25.4674977640
  H         0.6956895568       14.1998905004       25.3555770705
  C         0.2547525199       12.5530810055       26.6363489138
  H         3.9616613233       12.8138659650       22.7843112511
  H         3.2894395934       12.8801312938       24.4643640499
  C         4.6795471955       14.3448619958       23.9835048794
  C         2.7098888758        9.2717972005       19.7387127432
  C         0.2811192827       11.2264993196       26.7489122470
  H         0.6436341867        9.5139361476       25.3791667889
  C        -0.1192884256       12.8845869786       27.9142846688
  H         5.3970585883       13.9638083763       24.7222333843
  H         4.2504468389       15.1741523680       24.5183268972
  C         5.4642021348       14.8827590582       22.7902881890
  C         2.6787152272        7.8834141376       19.5128123179
  C         3.0885972990       10.0208292578       18.5557369362
  C        -0.0616867361       10.4832611133       27.9433293026
  C        -0.3061352191       11.7952368387       28.7429638595
  S        -0.4678954017       14.3183611707       28.7038538311
  H         6.1171772284       15.6604809716       23.1401062963
  H         4.8639754818       15.4910580848       22.1449952375
  C         6.2621279002       13.8182141312       22.0106352164
  N         2.3307644100        6.9145662082       20.4947985314
  C         2.9539424042        7.2643832313       18.2997801952
  C         3.4363265275        9.4294067886       17.3734052710
  H         3.1067748484       11.0192619337       18.6115955964
  C         1.0852900842        9.6836986174       28.6771217978
  C        -1.3571795400        9.6512836054       27.6796772449
  C        -0.7406589820       12.1864820521       30.0347917135
  C        -0.7494498373       13.5540984253       30.1873295536
  H         7.3563228747       13.9610333364       22.0975737712
  H         6.3013878865       12.8540283260       22.4168167621
  C         5.9103254037       13.7346066475       20.5437558762
  S         2.4674167551        5.4142068089       19.7212538972
  N         2.8386584215        5.8930096545       18.2805411313
  C         3.3881698196        8.0046610755       17.1931394104
  H         3.8208514158       10.0700737646       16.5879069087
  H         1.4628109967        8.9063390386       28.0002028775
  H         0.5352227157        9.2254521683       29.5435403702
  C         2.2340223393       10.4859458099       29.1939453945
  H        -1.1179163987        8.8526540725       27.0066059303
  H        -1.5803778618        9.2512948295       28.6054898622
  C        -2.6078623907       10.4062868810       27.1338747968
  H        -0.9579166180       11.4861401609       30.7177636107
  C        -1.1968214238       14.3433448317       31.4035144033
  H         6.1831439804       14.7130212044       20.1108837799
  H         4.8564549698       13.4473025518       20.4258761022
  C         6.6785902935       12.6582330922       19.7499779574
  C         3.5581075094        7.3115413532       15.9926422978
  H         2.6377106381       11.0873274129       28.3846842229
  H         1.8851774183       11.2027372271       29.9544871864
  C         3.2423053502        9.5587741009       29.8643744239
  H        -2.3443038248       10.8913913521       26.1068554316
  H        -2.9435642329       11.1850896747       27.8576181085
  C        -3.7789236034        9.4859163735       26.9209689551
  C        -1.2687000114       15.7439776781       31.4135044232
  C        -1.6507388667       13.6649991132       32.6856578633
  H         7.6673897093       12.7543997307       20.1512936649
  H         6.2516166108       11.7120356014       20.0652646571
  C         6.4658950328       12.8620302364       18.2187681890
  H         3.3800651402        6.3009239038       16.0563432737
  C         3.8261262781        7.7577465458       14.7156700005
  H         3.3024521352        8.7206937511       29.1876954215
  H         2.7876362952        9.2258483166       30.8145826911
  C         4.5219926820       10.2763836733       30.1459431329
  H        -3.3306995754        8.5329169951       26.5357995436
  H        -4.2366169816        9.1578145169       27.8579890754
  C        -4.7711052863       10.0953954468       25.9043675801
  N        -0.9545993894       16.5782519990       30.3510474423
  C        -1.6489763052       16.4496698729       32.5433224088
  C        -2.1062814618       14.4327425961       33.7786008594
  H        -1.5481088627       12.5940266147       32.6994548169
  H         5.4450872752       12.9408384976       17.9097979738
  H         6.9429155595       13.8151786524       17.8928507500
  H         7.0193794264       12.0387397092       17.7333486012
  S         3.9461948341        9.3407189537       13.9677385359
  C         4.0441289075        6.6421248149       13.6905453661
  H         4.7423693572       11.0382518900       29.3765357984
  H         4.3587875401       10.8441573139       31.0641515628
  C         5.8283267454        9.3904635847       30.2506991484
  H        -4.6559128312        9.6114047909       24.9637973593
  H        -4.6923648887       11.1941329395       25.8000481058
  C        -6.2102425970        9.7920393611       26.3223515773
  S        -1.1747746803       18.1431106370       30.7265764831
  N        -1.6479620137       17.8457715209       32.2908294796
  C        -2.0836803129       15.9118831583       33.7601949095
  H        -2.3583957375       13.9538929673       34.6406039475
  C         4.1017084844        8.5363545153       12.3968404815
  N         4.3040759669        7.2206782479       12.4854920573
  O         3.8624077674        5.4348429756       13.9496292531
  H         6.6810353886        9.8861402532       30.7135561556
  H         6.1956438196        9.1876052099       29.2507862223
  C         5.5272823386        8.1332159643       31.0733198592
  H        -6.2357718694        8.7026934039       26.3270356897
  H        -6.4087030789       10.0832580488       27.3738783917
  C        -7.3099771190       10.4031559726       25.4208156191
  C        -2.4044362149       16.7502530281       34.9261253461
  S         4.5072010966        9.2597018159       10.7974120479
  C         4.4905577435        6.3557066107       11.2986305407
  H         5.5946827994        8.3407613847       32.1134183910
  H         4.5337000622        7.6416512819       30.9034780424
  C         6.6278587780        7.1660631680       30.9002673961
  H        -6.9673714920       10.5753028560       24.4639963093
  H        -7.5834737402       11.3650958277       25.8728147800
  C        -8.6433306842        9.5709960714       25.3528261648
  H        -2.2279007946       17.7677715878       34.7035070417
  C        -2.6920084720       16.3724246617       36.2075818770
  H         5.2351291901        6.7012480200       10.6101938694
  H         4.7775555750        5.3718450935       11.6678640407
  C         3.2223804101        6.1868706894       10.5068369564
  H         7.5298802506        7.7751567541       31.1612944180
  H         6.6920452195        6.7874315224       29.8696685791
  C         6.5525671500        5.7915222789       31.6332268573
  H        -9.2204506656        9.9799639378       24.5755542069
  H        -8.3657323516        8.5138236595       25.0684330189
  C        -9.4716156745        9.5311765169       26.6561354855
  S        -2.8927875507       14.7649259928       36.8821693641
  C        -2.9903297868       17.4704508795       37.0894928177
  H         3.1113685290        5.1428986899       10.2506663049
  H         2.3249851482        6.4383062413       11.0141157317
  H         3.2108608321        6.7586380907        9.5910864896
  H         5.5457490000        5.5749817710       32.0823748524
  H         7.1968487313        5.8859498986       32.5159886560
  H         6.6677937301        5.0024144950       30.9788786121
  H        -9.8835522702       10.4928548933       26.8254819100
  H        -8.9600108372        9.1106710359       27.5364250398
  H       -10.3657761584        8.9086027032       26.4963408169
  C        -3.4150666006       15.6756589916       38.3210643687
  N        -3.4801332341       17.0424685793       38.2450445175
  O        -2.7530735837       18.6532200440       36.8007085178
  S        -3.8956698213       15.0019353587       39.9656646780
  C        -3.6720500492       18.0164179992       39.3234987939
  H        -4.0162149376       18.8898609982       38.9003279179
  H        -4.4346393399       17.6992737132       40.0176145080
  C        -2.3815628113       18.3353233610       40.0538686539
  H        -2.5308434373       19.3078436857       40.5448774992
  H        -2.1764700488       17.6144842730       40.8545901859
  H        -1.5330745552       18.3665667399       39.3241609442
