352
i=
  H         2.9908444340        1.0626782918       13.5291411933
  C         3.6447245072        1.7796750656       13.0568483514
  H         4.5078769521        1.1662628743       12.9208078401
  C         2.9477977836        2.1829070900       11.7441738988
  C         3.9511128274        3.0047304975       13.9636781517
  C         3.9992477224        2.5008496203       10.7119463329
  H         2.1851918934        2.9885079830       11.8558063838
  H         2.4109666520        1.2746637584       11.4414724867
  H         3.1290216888        3.6754420330       14.2281005396
  H         4.5436018763        3.7569973590       13.5502812211
  H         4.4620891854        2.6402973909       14.8608806612
  C         4.5349355002        1.3043318928        9.9723882729
  H         3.7691889282        3.3799719569       10.0383910794
  H         4.8258131148        2.9157140988       11.3221495420
  C         5.4758002217        1.4568422967        8.7081425898
  H         3.7207580972        0.6227214314        9.6346001832
  H         5.1092248317        0.5672391812       10.5616229389
  C         6.7098083606        2.3259302345        8.8204185478
  H         4.8614483707        1.8743675390        7.8875348821
  H         5.6932934100        0.5274497672        8.1478417454
  C         7.8830125550        1.6080442030        9.4218910740
  H         7.0181572813        2.8888126560        7.9179861385
  H         6.3709480772        3.1533383407        9.4240645315
  C         9.1111346535        2.5088420559        9.4743283256
  H         8.0437301620        0.6529064598        8.8690184275
  H         7.6394980342        1.3745069307       10.4628561517
  C         8.7375102542        3.9240143414       10.1011877997
  C         9.6023888353        3.1897265544        8.1892601274
  C        10.2242304578        1.8717701000       10.4122778303
  C         9.1098320775        5.0310750470        9.3088165726
  C         8.1343848481        4.3667473388       11.2926920293
  C         9.6207720848        4.5823377269        8.1190023573
  C        10.0927339234        2.5719827298        6.9958562483
  H         9.8047023494        1.5719993562       11.3983909266
  H        10.6077625692        1.0372372513        9.8514692001
  C        11.4082057191        2.7765262999       10.6995579170
  S         8.8787413957        6.5657833790       10.0096040543
  C         8.1827695394        5.7645196778       11.3784614749
  H         7.7647234498        3.6504708005       11.9715051999
  C         9.9724680751        5.2258171271        6.9562492521
  H        10.3695910756        1.4962470950        7.1419037004
  C        10.4180162668        3.3004486884        5.8214013603
  H        11.1796941545        3.7486258385       11.1933575024
  H        11.9013328400        3.0980432248        9.8418458965
  C        12.4209277169        2.1295262307       11.5838683917
  C         7.7425830893        6.4986661560       12.5615983129
  C        10.3500337532        4.6305647152        5.7440853227
  H         9.9235751579        6.3028323220        7.0021183963
  C        10.8676667764        2.9754949710        4.5888846124
  H        13.4543429476        2.5451312564       11.3318830820
  H        12.6431827082        1.1450980492       11.2819098460
  C        11.8867793635        2.0288196291       13.0353091465
  C         7.7657792440        7.8779810660       12.7575260263
  C         7.1899650604        5.6762987238       13.6660310845
  C        10.6315196352        5.3767827700        4.4223109297
  C        10.9274018864        4.0489908786        3.7522907227
  S        11.0361798623        1.4364118929        3.7902750977
  H        11.3093417892        2.8724896150       13.4246769868
  H        11.2576846914        1.1481039506       13.1602199066
  C        13.1448192340        1.8811305018       13.8568678636
  N         8.1120782885        8.8690383897       11.8148367255
  C         7.4906806426        8.4129788233       13.9963837180
  C         6.7083579979        6.3094430200       14.8364466236
  H         7.1000682377        4.6515094459       13.5852436527
  C        11.9205008328        6.2612938363        4.4520432390
  C         9.4293980498        6.0798794845        3.6143935571
  C        11.2191290704        3.6062686928        2.4245822958
  C        11.3181711220        2.2122183000        2.3141001823
  H        13.3120736465        2.9186068413       14.1735200021
  H        13.8615807703        1.3991964652       13.2528131194
  C        12.8771687275        1.0183796483       15.0834527741
  S         8.2593306016       10.2921758053       12.6133746863
  N         7.9273182974        9.7217976965       14.0928072194
  C         6.9970329381        7.7054360853       15.1142648786
  H         6.2819786565        5.7578879476       15.6408159548
  H        11.7990825944        7.2002726582        4.9676903200
  H        12.2233651441        6.4510944952        3.4329532627
  C        13.1773678840        5.4589325275        4.9800102869
  H         8.9412772013        6.8002410033        4.2977062184
  H         9.7417382848        6.6088347385        2.6729617979
  C         8.3475685644        5.1012841423        3.2026388202
  H        11.4331694415        4.3874844037        1.6721327193
  C        11.6334315639        1.4124617969        1.0396623196
  H        12.4065942711        0.0328132866       14.8345645067
  H        13.7914512914        1.0089936380       15.6720493078
  C        11.8398350096        1.4684643937       16.1714688821
  C         6.7405345047        8.3674813269       16.3472522266
  H        12.9018478046        4.9854430423        5.9591141650
  H        13.4109143377        4.6488789896        4.3235492747
  C        14.5301046646        6.2195913942        5.3442127145
  H         8.0042796153        4.5734387165        4.0222264148
  H         8.7148666481        4.3347965068        2.4911309656
  C         7.2745950147        5.8402235897        2.3779548482
  C        11.7900240078        0.0460197493        0.8493273982
  C        11.8622777750        2.2908114391       -0.1870320075
  H        11.2566595494        0.6085040122       16.4086649761
  H        11.0815628021        2.1530029475       15.7815546622
  C        12.4084727880        2.1043285309       17.4141683881
  H         6.9937094344        9.4134798990       16.3361489472
  C         6.4501651090        7.9097564137       17.5644017880
  H        14.2973074557        7.0587217597        5.9878923499
  H        15.0377532705        6.5798409823        4.4390161726
  C        15.5103170623        5.2753053088        6.0171689121
  H         7.7761445313        6.5059941486        1.6714025054
  H         6.6929276560        5.1084489576        1.7741698323
  C         6.2855032382        6.5730373834        3.2120812073
  N        11.6896087951       -0.8770775419        1.8855169260
  C        12.1432724900       -0.5404879310       -0.3419350550
  C        12.2643644924        1.7289227825       -1.3956196588
  H        11.7852064419        3.3950878846       -0.0597910574
  H        11.7177322434        2.4815839528       18.0756996121
  H        13.0430713069        3.0154219361       17.0798690983
  H        13.0493218783        1.3367612831       17.9703081079
  S         6.3274112389        6.2679851928       17.9985131601
  C         6.3269194095        8.8473783616       18.6619215248
  H        14.9263759421        4.8512871066        6.8039639308
  H        15.8449582897        4.4775853225        5.3333575808
  C        16.6018664262        6.0848722127        6.6210900595
  H         6.7724201240        7.2613760884        3.8792029823
  H         5.7441945644        5.8342481126        3.8041601526
  C         5.3947291276        7.3070896276        2.1194622284
  S        11.8517241576       -2.3967715980        1.2755569808
  N        12.2959210683       -1.9452923985       -0.2577637975
  C        12.3603241047        0.2382656815       -1.4928324358
  H        12.4061573688        2.3808899964       -2.2748105800
  C         6.0268081703        6.8327567642       19.6168566179
  N         6.1033187785        8.1242275062       19.8060152103
  O         6.2446815901       10.0845599491       18.5840668027
  H        17.0600611517        6.7400836334        5.8803482432
  H        16.1859186585        6.8106054343        7.3264677209
  C        17.5827822322        5.1994723500        7.4734273679
  H         5.9798747443        7.9338459591        1.3943252906
  H         5.0112240272        6.5768024997        1.3439091470
  C         4.2498273540        8.1330287199        2.8212134056
  C        12.7909484284       -0.4916721481       -2.6573507404
  S         5.4934201227        5.8671388366       20.9953323143
  C         5.8235663281        8.8205624421       21.0398827370
  H        17.1592913418        4.9024393297        8.4074268584
  H        17.6715731677        4.2537686814        6.9722375002
  C        18.9688283198        5.8691813925        7.8428061939
  H         4.4397187623        8.3012213760        3.9244835294
  H         3.2891853225        7.5644915273        2.9451540293
  C         4.0820552356        9.4327955928        2.1156992768
  H        12.6007859304       -1.5354108444       -2.6416736285
  C        13.2356302221       -0.0838088167       -3.8898267345
  H         4.8792268932        8.3825814466       21.4445779021
  H         5.3608579310        9.8146048325       20.8601598020
  C         7.0797074200        8.9241580319       21.9312202281
  H        19.5060268983        5.3170513461        8.5802024589
  H        18.7961827997        6.9022733501        8.1716961894
  C        19.9172647432        5.8986586105        6.6375555747
  H         3.2916747456        9.9099815358        2.6850929411
  H         4.9766420144       10.1288343010        2.2180381154
  C         3.7931363577        9.2741400841        0.5929601240
  S        13.9000425923        1.4415786413       -4.3514407536
  C        13.3290864634       -1.0865806855       -4.9496812436
  H         6.7840535399        8.8164793480       22.9768154554
  H         7.5272942244        9.8985999915       21.8703472151
  H         7.8371152635        8.1772585127       21.5691618502
  H        19.5221025554        6.3364672087        5.7621864013
  H        20.7380585850        6.5568985434        6.9110047969
  H        20.5461918517        4.9600612342        6.5350760322
  H         4.1440567247       10.0374060194       -0.0301825121
  H         4.0566853152        8.3026419053        0.1004674554
  H         2.7437482959        9.3235207411        0.3922074715
  C        14.1161293569        0.7528715344       -5.9489882154
  N        13.9025256120       -0.6052364932       -6.0714068380
  O        12.9938371380       -2.2718274910       -4.7573444849
  S        14.9036671737        1.5658197936       -7.2599412911
  C        14.0262229905       -1.3795548283       -7.2878630489
  H        14.2920555035       -2.3488252805       -6.9689251194
  H        14.8446100302       -0.9397664267       -7.9132058916
  C        12.6782936091       -1.3048987609       -8.0022859156
  H        12.0188273709       -2.2530737860       -8.0155726004
  H        12.7444299406       -0.9502807886       -9.0577717632
  H        12.1203992064       -0.5087119920       -7.4829702835
  H        -3.3958890816       14.8465966095       16.4661587093
  C        -2.8732065619       13.8345109655       16.5407690687
  H        -3.6305825135       13.1589492687       16.9153939167
  C        -1.7154513514       13.9237860828       17.5275742134
  C        -2.4678968562       13.2214198594       15.2339136566
  C        -2.2957666038       14.1713095773       18.8848399996
  H        -1.2352414124       12.9532372208       17.4866356217
  H        -1.0174292518       14.6868375041       17.2976381477
  H        -3.1403720369       13.4624550916       14.4076396478
  H        -1.4245731304       13.5471673748       15.0229872677
  H        -2.4697283803       12.1773726244       15.3240951435
  C        -2.0224072665       12.9771173303       19.8252919094
  H        -3.3871497338       14.3514726158       18.8983470445
  H        -1.9672270439       15.2144227915       19.2703738448
  C        -2.4312383159       13.3741221948       21.2945312667
  H        -2.5789309103       12.0683570963       19.6456123249
  H        -0.9783740565       12.6979735514       19.6869118637
  C        -1.5220983570       12.9307479552       22.4090582290
  H        -3.3905186355       12.9297096476       21.4635907780
  H        -2.6130672760       14.4158481828       21.3112679305
  C        -0.2771729134       13.8303600123       22.7702725217
  H        -2.1555503032       12.8060180899       23.2493765383
  H        -1.2452165851       11.9072963947       22.2847332548
  C         0.8825579393       13.0436130317       23.4027407824
  H         0.0435149276       14.2961761916       21.8405548174
  H        -0.6608886117       14.6164860818       23.4128107312
  C         1.2238515909       11.7546821910       22.6943730852
  C         0.4295151789       12.3708690212       24.6644670708
  C         2.0703774360       13.9845001429       23.5892078903
  C         0.8726560898       10.6884583032       23.4311599344
  C         1.8404061362       11.3677131174       21.4392412250
  C         0.4277139575       11.0479144697       24.7065335677
  C         0.0085013987       12.9600784105       25.8509139716
  H         2.3226402207       14.5836814441       22.7197638571
  H         1.8332680926       14.8536139613       24.2284359178
  C         3.2457913250       13.3797415145       24.4192610777
  S         1.2510246514        9.1002706855       22.6727318671
  C         1.8665491145        9.9867884278       21.2882591411
  H         2.3438436701       12.1522969801       20.8790604762
  C        -0.0372832282       10.3866714981       25.8179431450
  H         0.1419173657       14.0205735552       26.1070847714
  C        -0.4073123203       12.2864960343       26.9867870726
  H         3.3038538768       12.3860671333       24.1002474810
  H         3.1230540253       13.3508161852       25.5186888575
  C         4.5625854336       14.0677788973       24.2723204790
  C         2.4344425849        9.3062067034       20.0184548537
  C        -0.4473237812       10.9541731710       26.9950163253
  H         0.1869283478        9.2488437222       25.7450451728
  C        -0.7946525321       12.6461644967       28.2391370077
  H         5.2303599886       13.4461684341       24.8717786247
  H         4.6036049839       15.0269469010       24.7044394945
  C         5.1479751755       14.1547666991       22.8999796498
  C         2.4094298234        7.9210901716       19.7609885802
  C         2.8015833558       10.1345299019       18.8872837944
  C        -0.8029576768       10.2364055971       28.2989174028
  C        -0.9942571122       11.5650350862       29.0791333593
  S        -0.9721330521       14.1568057740       29.0637510687
  H         5.8038283540       15.0270622467       22.7725584517
  H         4.3513654524       14.3480310168       22.1438672149
  C         5.8050579703       12.8535493405       22.4134481830
  N         1.9393922485        6.9448059679       20.5812797270
  C         2.8145719606        7.4407307983       18.4983190175
  C         3.1163452433        9.6721778846       17.6761460709
  H         2.9324460714       11.2338114284       19.0819550002
  C         0.2976227146        9.3100184575       28.8195369870
  C        -2.1327380993        9.3423952181       28.0033898982
  C        -1.3089510083       11.9497727414       30.3662255842
  C        -1.4422740681       13.3146377401       30.4797969651
  H         6.7859545610       12.8714814487       22.7133066410
  H         5.3761938871       11.8908062251       22.7205842813
  C         5.8078574326       12.9143805440       20.8095196837
  S         2.1778464440        5.4599696695       19.8420372476
  N         2.6396343791        6.0305427970       18.3827983478
  C         3.1375098954        8.2631466893       17.3856570647
  H         3.5462974203       10.3597272986       17.0092798198
  H         0.7764850681        8.5375027306       28.1888602308
  H        -0.1603802840        8.7798831896       29.7038174652
  C         1.5485880854       10.0866442725       29.3357760504
  H        -2.0076328415        8.5893846558       27.1840396468
  H        -2.4055459338        8.8778256259       28.9883441154
  C        -3.2845203162       10.1181892377       27.5299796355
  H        -1.4753765668       11.2355640567       31.1325880322
  C        -1.8109992177       13.9776450281       31.7546677716
  H         4.8246104792       13.0502044959       20.4258289261
  H         6.1204975089       11.9467711265       20.4355034701
  C         6.6826407210       13.9580981298       20.1303393765
  C         3.3509049432        7.6288566522       16.0454346956
  H         2.1423041705       10.6369099778       28.6376679122
  H         1.3360979054       10.7074155851       30.1946838670
  C         2.4527673191        9.0887917596       30.0810101129
  H        -3.0048334807       10.5309623526       26.5559743519
  H        -3.5104882390       10.8996342886       28.2672813918
  C        -4.5576665554        9.3873599617       27.2092410465
  C        -1.9246355597       15.4020579247       31.9224685626
  C        -2.0954289209       13.1910364176       33.0047461012
  H         6.3454932097       14.9920245869       20.4108890345
  H         7.6211225182       13.7988067549       20.5226278819
  C         6.6143345698       13.7925041674       18.5747896078
  H         2.9788555879        6.6287504930       16.0090888879
  C         3.6772614462        8.1335466351       14.8261168129
  H         2.6577692059        8.2141551898       29.5333562690
  H         1.9121799013        8.6463938020       30.9184478263
  C         3.7635150470        9.6449929424       30.6532988137
  H        -4.2399626008        8.6456778676       26.5341234810
  H        -4.9350711024        8.9444678170       28.1206768204
  C        -5.5456173553       10.2718822723       26.4834260635
  N        -1.7810082500       16.2772942040       30.8595143198
  C        -2.1652609486       16.0176410478       33.1734872817
  C        -2.3477956835       13.8083900076       34.2330764591
  H        -2.1425554965       12.1519458284       32.9422484879
  H         7.2746109476       14.4596733495       18.0373420503
  H         6.9023122521       12.7635798356       18.3612453511
  H         5.6522214319       13.9323369908       18.1765946769
  S         4.0844059089        9.7681354081       14.4297056211
  C         3.6512830949        7.2509813412       13.6561359532
  H         4.0401170197       10.5954994863       30.1586586280
  H         3.5219705078        9.8851873337       31.6964544004
  C         4.8576684551        8.6427105660       30.4910503279
  H        -5.0973113928       10.8286645235       25.6481738881
  H        -5.9239234823       11.0516304646       27.1991379565
  C        -6.6947247260        9.5115837769       25.8730446609
  S        -1.6985934413       17.8259215406       31.4982817751
  N        -2.0933452081       17.4054745445       33.0676192346
  C        -2.4429321318       15.2741544199       34.3263973687
  H        -2.4360293882       13.2783537955       35.0765673893
  C         4.3740771251        9.1613519658       12.7503975347
  N         4.0321546419        7.8690407701       12.5459307244
  O         3.4263626277        6.0649425353       13.7535380766
  H         5.7636186786        9.1509606858       30.4377698084
  H         4.6862157199        8.2166110727       29.4920798394
  C         4.9252369183        7.6412402120       31.5908207054
  H        -6.2962452195        8.7317059025       25.1583735334
  H        -7.2370185907        8.9354461911       26.6060095784
  C        -7.6586746277       10.4860939755       25.2058815941
  C        -2.6892512900       16.0360703696       35.5673002460
  S         5.0979505392       10.1308756974       11.4091636905
  C         4.0292115920        7.0997527525       11.2909599426
  H         5.5497431007        7.9696382259       32.4037432295
  H         3.8830738638        7.4432958936       31.9289429457
  C         5.4613411258        6.3058730190       31.1204802887
  H        -7.2195476366       10.6277263573       24.2006924239
  H        -7.6933048370       11.5081215890       25.6862532554
  C        -9.0776434635        9.9276115225       25.2207867015
  H        -2.6749282050       17.1122044352       35.3803427066
  C        -3.0305528273       15.7917143490       36.9088386402
  H         4.1415050935        7.7248636337       10.4029717930
  H         4.8161845752        6.3231396032       11.2098450750
  C         2.7747072777        6.2160620090       10.9285822212
  H         4.8325953125        6.0053404739       30.2757139706
  H         5.2063496700        5.4288461993       31.7101504646
  C         6.9199402601        6.3440229797       30.6710669631
  H        -9.6155979605       10.2989229014       24.2989848788
  H        -8.8002352676        8.9320635876       24.9164081681
  C        -9.9002879740       10.1304479212       26.5423925441
  S        -3.4304906545       14.2657851207       37.6419486478
  C        -3.2196512539       16.9337466413       37.7222608564
  H         2.8974850390        5.7636292228        9.9507386723
  H         2.4977628460        5.3795437042       11.5710357796
  H         1.9005155856        6.7960528725       10.7542017879
  H         7.4779352581        6.6751706283       31.5462751700
  H         6.9989845953        7.0181705892       29.8368546198
  H         7.3274960542        5.3252661818       30.4596353525
  H       -10.7163955816       10.8136176766       26.3194175737
  H        -9.3280681671       10.5942733829       27.2952125462
  H       -10.3185712065        9.1992866712       27.0294036809
  C        -3.7695300972       15.1938011261       39.0834813062
  N        -3.6662399715       16.5035526446       38.8943979079
  O        -2.9772451671       18.1160059374       37.5292130044
  S        -4.0363833602       14.6646306537       40.7334515129
  C        -3.8601542384       17.5245251839       39.9400727956
  H        -4.2148171795       18.4948989156       39.6338997055
  H        -4.6002489263       17.0998941099       40.6179023624
  C        -2.6270505157       17.7877035980       40.7716430243
  H        -1.7442178347       17.9032878985       40.1639499926
  H        -2.8857807650       18.6477532513       41.3269516378
  H        -2.4568970542       16.9211720062       41.4678368397
