352
i=
  H         4.5760368321        1.0703901923       12.9626642133
  C         4.4172441018        2.1080778922       12.8769163875
  H         5.4956160406        2.4425471444       12.8578791355
  C         3.6423481335        2.6429961856       11.6534500633
  C         3.9068678934        2.6483364054       14.2339256144
  C         4.5645506783        2.7698303815       10.4661990837
  H         3.3391573861        3.6186729606       11.9358507328
  H         2.7060190262        2.1705316650       11.4523075151
  H         4.1015396243        1.8575021025       14.9395307486
  H         2.9143787345        2.9333014638       14.1124760108
  H         4.4404952525        3.5032918530       14.5555061866
  C         4.9164696882        1.4498584145        9.7495403392
  H         4.1032645743        3.4074842185        9.7703124793
  H         5.4934847282        3.2874027205       10.7439578763
  C         5.6436354414        1.6404431291        8.3386841596
  H         4.0789049248        0.8104676731        9.6867744806
  H         5.7151416723        1.0216527270       10.3611229878
  C         6.9499136676        2.4910009826        8.2796335059
  H         4.8780798185        2.1183207537        7.7142508853
  H         5.7579641184        0.6778413001        7.7966024808
  C         8.1520097117        1.8452410496        8.8969179143
  H         7.1184678862        2.8787720337        7.2321660559
  H         6.5978163128        3.2494395074        8.9348788734
  C         9.3906777688        2.6839918191        9.1966684755
  H         8.4065821091        1.0589787908        8.1687009262
  H         7.8575972301        1.3108202894        9.8350781693
  C         8.9844556660        4.0375497668        9.8805373496
  C         9.7418998855        3.4798463760        7.9466276799
  C        10.4697477838        2.0148827632       10.0473548240
  C         9.1377055511        5.1437753530        9.0760560276
  C         8.4739395488        4.3744005938       11.1489988922
  C         9.6763743081        4.8203975289        7.8458115601
  C        10.2223735088        2.8488934969        6.8013928659
  H        10.2840153099        1.5802567780       11.1003693481
  H        10.8135800832        1.1080005665        9.4940665809
  C        11.7079531255        2.9335118331       10.3056436537
  S         8.6477548504        6.5966116252        9.7983970518
  C         8.2599393819        5.7269096732       11.1845592717
  H         8.2071138062        3.5055971321       11.7272505790
  C        10.0206208811        5.4362048622        6.6806282780
  H        10.2572292040        1.7619413272        6.8340099648
  C        10.5554028783        3.4434739992        5.6333906488
  H        11.4118257218        3.8599790989       10.7434440335
  H        12.1080201456        3.2384113292        9.3748447888
  C        12.7986498644        2.3181169821       11.1692057391
  C         7.5800919647        6.3996911440       12.3829257141
  C        10.4818965671        4.8107544262        5.5427714862
  H         9.8115683109        6.4833500126        6.6747262435
  C        10.8724938228        3.0467229787        4.3606512460
  H        13.6588958799        2.9877848387       11.1043198229
  H        12.9917287474        1.2867248214       11.0288178677
  C        12.4441126680        2.4118513384       12.7096134042
  C         7.6393415260        7.7400042683       12.6260964326
  C         7.3057955906        5.4643956851       13.4877588461
  C        10.8073218961        5.4430266402        4.2093053858
  C        11.0805139628        4.1288474171        3.5416436230
  S        11.0842489013        1.4903597427        3.6436265497
  H        12.9425633687        3.2744245218       12.9577054508
  H        11.3940832804        2.5666149076       12.9351768487
  C        12.8959726163        1.4069836502       13.7789986072
  N         8.1004972655        8.7233111966       11.8016070013
  C         7.2297553354        8.2465179476       13.8172136295
  C         6.9027044711        5.9397815819       14.7270001239
  H         7.1414584439        4.4323594112       13.2889603470
  C        12.0770060476        6.2868683365        4.2526460740
  C         9.7167369622        6.2743024315        3.4295121224
  C        11.5008243283        3.6953995072        2.2763130466
  C        11.5235370313        2.3046597663        2.1728453196
  H        13.8425906339        1.0712570813       13.4825634572
  H        12.1812084624        0.5847921264       13.7282719913
  C        12.9756793329        2.1044175937       15.1388144282
  S         8.0370375618       10.1539252014       12.4996871913
  N         7.2841290294        9.6146128320       13.8273836456
  C         6.7268690003        7.4324576715       14.8613048020
  H         6.5786775251        5.2253474948       15.4750555942
  H        11.9620751513        7.0445248737        5.0623223558
  H        12.1316497903        6.9360115915        3.3517339725
  C        13.3886543200        5.5447526037        4.4847548868
  H         9.6104381961        7.1873622582        3.9884877898
  H        10.1013245698        6.4077136108        2.3876247693
  C         8.4249859945        5.6009391599        3.0651464551
  H        11.6841950714        4.4670813525        1.5211068847
  C        11.7873136737        1.5108475368        0.9320204054
  H        13.8824631558        2.4777789736       15.2628991561
  H        12.3103992252        3.0053672916       15.1750833373
  C        12.6199554954        1.1739826250       16.2709661537
  C         6.4687416239        8.0600470435       16.1393952317
  H        13.4241829627        4.9559674720        5.4356523260
  H        13.5426168797        4.7368415622        3.7127610197
  C        14.6185179463        6.4508942242        4.5704463511
  H         8.0947576098        5.2016790009        3.9991259532
  H         8.7791065079        4.7221769924        2.5606333791
  C         7.2579363041        6.3352172014        2.3370701764
  C        11.8568397604        0.0864847386        0.8794379661
  C        11.9172513091        2.1567330535       -0.3637370618
  H        13.1823413991        0.2875622827       16.3015848102
  H        11.5640227805        0.8871911775       16.1823316512
  C        12.6741504569        1.9088912702       17.5717867845
  H         6.3676133637        9.1548233712       16.0917820334
  C         6.3052637034        7.6113098595       17.4492451972
  H        14.4763064915        7.1944524388        5.3768035911
  H        14.7540115092        6.9601482008        3.6089140961
  C        15.9537241086        5.6973454783        4.8082584617
  H         7.0297480302        7.3090267335        2.6769107053
  H         7.4915136064        6.5150225879        1.3382039065
  C         6.0313796523        5.4590979862        2.4171841125
  N        11.5779182149       -0.8246278822        1.8915912457
  C        12.1207802526       -0.5774341376       -0.3189402946
  C        12.2822116971        1.4666624789       -1.5401222246
  H        11.6813028742        3.1831733447       -0.3599880897
  H        12.3755045972        2.9434926913       17.3899454881
  H        13.6476681770        1.6898485292       18.1430329932
  H        11.9097216544        1.4710571129       18.1993242975
  S         6.3146336920        6.0147249016       17.8113025196
  C         6.0669694668        8.6017692999       18.4911914838
  H        16.0257051417        4.7303994890        4.2940021156
  H        16.7074175872        6.3666420766        4.3717699661
  C        16.1988775064        5.4624148659        6.3840596954
  H         5.7574611587        5.1273005184        3.4268953994
  H         6.1944084390        4.5390011307        1.7853092877
  C         4.7484876718        6.1186737546        1.9221855816
  S        11.6699853899       -2.3404990358        1.3493356599
  N        12.0336308041       -1.9428043719       -0.2076321858
  C        12.4554476438        0.0198483146       -1.5882218809
  H        12.5541978893        2.0841693183       -2.4323839906
  C         5.9201250199        6.6281190654       19.4971471855
  N         5.8376254629        7.9410514670       19.6619144369
  O         6.0212396665        9.7997453914       18.2680537110
  H        16.1485946610        6.4025042971        6.8964192895
  H        15.4272715449        4.7471160497        6.7472881060
  C        17.5953821137        4.9357644582        6.7818325665
  H         4.7389680955        6.1468482467        0.8185022747
  H         3.9105961879        5.4488853426        2.1155272337
  C         4.4124061771        7.4842615790        2.6411284818
  C        12.8141142628       -0.7260519791       -2.7810838912
  S         5.6170722739        5.6458199288       20.9201918741
  C         5.7237922143        8.5967499692       20.9673152479
  H        17.7914669380        5.2311056520        7.7458365005
  H        17.5830573068        3.8773680736        6.6753481852
  C        18.6759369155        5.6170993102        5.9034406054
  H         5.1997658878        7.7803350626        3.3644450094
  H         3.4676262954        7.4069828240        3.1894060380
  C         4.5125386146        8.7402125739        1.7518394543
  H        12.8262801723       -1.7955894500       -2.6936669160
  C        13.1672532497       -0.3805500734       -4.0460057525
  H         5.0282060808        8.1339526550       21.7272201425
  H         5.2818554554        9.5430664132       20.8568882641
  C         7.0816884520        8.7344672719       21.6038362553
  H        18.3634823547        6.6233193940        5.6863792280
  H        18.6948758511        4.9778902706        5.0195693346
  C        20.1061057658        5.5566147628        6.3664347978
  H         4.8445709443        9.6186567338        2.2944321446
  H         5.2797971359        8.5084880184        0.9679432432
  C         3.2086654735        9.0252504313        1.0433677583
  S        13.5291236829        1.1550074490       -4.7001049509
  C        13.2490816242       -1.5287641521       -5.0139273118
  H         7.7450400423        9.3217772973       20.9695943468
  H         7.4259485422        7.6916838290       21.6707773049
  H         7.0765372403        9.2219495693       22.6140081301
  H        20.3477415255        4.5188647348        6.3314351551
  H        20.7671209441        6.0311686537        5.6156583347
  H        20.4053369590        5.8300508164        7.3877953904
  H         3.3479155928       10.0003729837        0.5293505486
  H         2.8376218714        8.2453209283        0.3309100284
  H         2.5138013592        9.2303577702        1.8975291326
  C        13.9399279078        0.2732089436       -6.1133323408
  N        13.6217488413       -1.0367788326       -6.1651057030
  O        12.9618675823       -2.6789366446       -4.7608311868
  S        14.4750857306        1.0996558357       -7.5545613115
  C        13.9762501549       -1.8403412280       -7.3388427849
  H        14.2807196285       -2.8268347931       -7.0113138781
  H        14.8459174690       -1.4350886723       -7.8362326483
  C        12.8554587700       -1.8514038869       -8.3929249512
  H        11.8274053933       -1.6483843166       -8.0289842206
  H        12.8815321100       -2.7865584548       -8.8142686099
  H        13.1291335020       -1.1288688097       -9.1207898131
  H        -2.2637562343       15.1312863902       16.7684244510
  C        -2.8640823662       14.3780202820       17.2389328845
  H        -3.5354812673       14.9237359501       17.9412972863
  C        -1.9753372061       13.2191474180       17.7585749154
  C        -3.6154729087       13.8034344859       16.0381814277
  C        -1.6693058578       13.3534765343       19.2506934583
  H        -2.3041866391       12.2368754388       17.5125247285
  H        -1.0191231616       13.3600821022       17.2084823967
  H        -4.4814436118       13.1685976057       16.1967312654
  H        -3.7463317015       14.4993378136       15.2171294601
  H        -2.9590252560       13.0382115488       15.6021185723
  C        -2.8526631603       13.0317615997       20.1615266706
  H        -1.3629826192       14.4005416544       19.5054799204
  H        -0.7623296878       12.7597211805       19.4948064759
  C        -2.7393873214       13.6946927896       21.5231902559
  H        -3.7807395317       13.3426196586       19.5761047258
  H        -2.8355705638       11.9624520644       20.1568782859
  C        -1.6497460970       13.0615705205       22.3886954633
  H        -3.6936589781       13.6470874095       21.9790179314
  H        -2.5516499981       14.7508907923       21.4178070182
  C        -0.4135012834       13.9584997774       22.5336060663
  H        -2.1070074806       12.8579664750       23.3576962971
  H        -1.4055323648       12.0592712826       21.9149158212
  C         0.7649895732       13.1901117332       23.2175600063
  H        -0.0793480652       14.4287172415       21.5993033164
  H        -0.7560891889       14.8137096089       23.1185255226
  C         1.0963673163       11.8706565659       22.4539603117
  C         0.3130815213       12.3935336887       24.4132393553
  C         2.0357248525       13.9891384600       23.5663513418
  C         0.8390010924       10.7445666003       23.2344071275
  C         1.4788164832       11.4819598953       21.1766282288
  C         0.3731457225       11.0682020777       24.4617824913
  C        -0.1785631726       12.9597011660       25.6313765205
  H         2.2507223198       14.5143072067       22.6564366490
  H         1.7665889624       14.7159577479       24.3319113285
  C         3.1592781272       13.1671085390       23.9920134018
  S         1.2151737561        9.3248412251       22.4944024664
  C         1.6827607596       10.1238391870       21.0612246457
  H         1.4838108660       12.3585561406       20.4579109416
  C        -0.0438717915       10.3575474827       25.6005900445
  H        -0.1808586110       14.0411017495       25.6604530753
  C        -0.5505314158       12.2582997862       26.7466025061
  H         3.4839629877       12.4697016542       23.2644727057
  H         2.8289646505       12.4956745751       24.8274741058
  C         4.3786795309       14.0246994918       24.3574546953
  C         2.1766643400        9.4868005074       19.8481258862
  C        -0.4894313265       10.9068198284       26.7746657611
  H         0.2995246952        9.3674984560       25.4755803927
  C        -1.0107296025       12.6412414377       27.9567626461
  H         5.0427947664       13.5536825668       25.1069423748
  H         3.9480654359       14.8682462454       24.8541976280
  C         5.3061418178       14.4705028525       23.1747354691
  C         2.2957268606        8.1026429361       19.6693766790
  C         2.4080325074       10.3058186594       18.6580560446
  C        -0.8498485198       10.2161581489       28.0646543207
  C        -1.0824092392       11.5504211347       28.8490518181
  S        -1.3706005037       14.1406626931       28.6997361291
  H         6.2067521530       14.9212305447       23.5060770264
  H         4.8080667711       15.2621694411       22.6424090809
  C         5.5900072553       13.4845128043       22.0930201830
  N         2.2121342026        7.1571594460       20.6710931080
  C         2.5698819353        7.4696383511       18.4637943761
  C         2.6937934028        9.7386768375       17.4628292748
  H         2.6297565391       11.3477228903       18.7093432511
  C         0.4021499433        9.4198891530       28.6237921806
  C        -2.1501989334        9.3858714995       27.9887373448
  C        -1.3744139721       11.9629094917       30.1447907887
  C        -1.4417134578       13.3271833444       30.2845275553
  H         6.6301825710       13.4205226636       21.8740726531
  H         5.4371040988       12.4803040671       22.4986916234
  C         4.7968680368       13.8266706602       20.7796457578
  S         2.5198533228        5.6922443397       20.0243792837
  N         2.8496935899        6.1350211074       18.5181428635
  C         2.8121479736        8.2836288801       17.3383399788
  H         2.9589682147       10.4880808667       16.6290078496
  H         0.8885651868        8.7886168644       27.9355091591
  H         0.0456764013        8.8244774583       29.4189911496
  C         1.5233015002       10.2704136321       29.2620841501
  H        -2.0140006699        8.3898123801       27.5422530397
  H        -2.4061986712        9.1451110677       29.0002140848
  C        -3.2131402658       10.1263225339       27.1642961968
  H        -1.5730522675       11.2693293119       30.9322273364
  C        -1.7015235118       13.9745168570       31.6056362007
  H         4.9978110549       14.7707221518       20.4206007817
  H         3.7153470201       13.8132434962       20.8876669546
  C         5.1178421830       12.7788998060       19.7036475758
  C         3.1060330747        7.6081821661       16.0863355181
  H         1.8747039223       10.9293824385       28.4392468654
  H         1.1500579964       10.8704634328       30.0499579610
  C         2.5573693698        9.3411143313       29.8505854069
  H        -3.0066404567       10.1433745611       26.0854707705
  H        -3.3856836626       11.1712889510       27.4975908313
  C        -4.5641406409        9.5502035644       27.2492990910
  C        -1.8341626255       15.3487506240       31.8460329878
  C        -1.6791202033       13.1429786974       32.8423022361
  H         4.8958436940       11.7566454785       19.9982699486
  H         4.4361178782       12.9267583390       18.9015201823
  C         6.4919915190       13.0231864189       19.0766414589
  H         2.8606370036        6.5803795020       16.0946941334
  C         3.4904073102        8.1186684413       14.8589043166
  H         2.6596690685        8.6088574879       29.0857009390
  H         2.1416847186        8.7892743858       30.7270028354
  C         3.9070533512        9.9897357176       30.2926014569
  H        -4.5207868942        8.6808157601       26.6236653949
  H        -4.8239800972        9.2045024567       28.2167267607
  C        -5.6902872099       10.4685720272       26.8796909467
  N        -1.8079894983       16.3523865860       30.8796012581
  C        -2.1042453087       15.8966053112       33.0316824060
  C        -1.8355141182       13.7075019052       34.0629459017
  H        -1.4874671911       12.0754422009       32.8808971892
  H         6.7285743780       14.0750392895       18.9051239310
  H         7.1809321523       12.7047201640       19.8119047347
  H         6.6732795008       12.4410005809       18.2273878832
  S         3.8864949294        9.6878434603       14.4188983719
  C         3.4602827540        7.1339377008       13.7059510293
  H         4.2870095781       10.3346201195       29.3263739690
  H         3.7807749409       10.7764650446       30.8879397021
  C         4.8311334165        8.9433160482       30.9964043893
  H        -5.3723955991       11.3012961700       26.2450217761
  H        -6.0071656416       11.0150985514       27.7849736225
  C        -6.8865893699        9.6613480243       26.4255162854
  S        -2.0556025832       17.7603144606       31.4645713856
  N        -2.2946106550       17.2939315390       33.0098751682
  C        -2.1183553603       15.1554549983       34.2298420502
  H        -1.7399450269       13.0484697386       34.9000665170
  C         4.2620321297        8.9849138238       12.8172353401
  N         4.0900660271        7.6774329969       12.6425086297
  O         3.1915545730        5.9896654879       13.8502790376
  H         4.7525326420        8.9990124760       32.1130315075
  H         5.8500472277        9.2606110111       30.8598752888
  C         4.6124117378        7.4578867300       30.5361612989
  H        -6.6055886878        8.7462037051       25.8716947194
  H        -7.3607776924        9.4527333814       27.3404746866
  C        -7.7924897993       10.5611834798       25.6676656071
  C        -2.5012701235       15.8201015016       35.3931941467
  S         4.8126977860       10.0171528117       11.4924045430
  C         4.1891384012        6.8752047170       11.3796855885
  H         3.6231788555        7.1187069613       30.9703247218
  H         4.5278983227        7.3289902454       29.4818032705
  C         5.7499274955        6.5409214635       30.9890709083
  H        -7.2549644300       10.6619105654       24.6524597262
  H        -7.8784919201       11.6531865216       25.9902245692
  C        -9.2327988120        9.9170281592       25.6747744503
  H        -2.6673699546       16.8816697380       35.3345039417
  C        -2.9496708132       15.3107511780       36.5942720873
  H         4.9704222806        7.4080702032       10.8221311128
  H         4.5776655144        5.8899891362       11.6537300613
  C         2.8827149021        6.9187529160       10.5189760977
  H         5.3540014971        5.4662799353       31.0728836426
  H         5.9693088917        6.7933695102       32.0355574740
  C         7.0466191299        6.6369228848       30.1484122157
  H        -9.6874064869        9.9547855399       24.6864178096
  H        -9.0962097720        8.8581661418       25.8766349210
  C       -10.1449717064       10.2696536840       26.7987708752
  S        -3.3419759950       13.6487155026       36.9488103175
  C        -3.1238577476       16.2246378945       37.7219272545
  H         2.3123801987        7.8492415015       10.6306590022
  H         3.0612090660        6.7740906519        9.4483262816
  H         2.2071668816        6.1749808774       10.9215882315
  H         6.8787753044        7.2458803887       29.2477452110
  H         7.1786120545        5.7035389230       29.6485443857
  H         7.8467598075        7.0056357717       30.6577408662
  H       -10.6872570404       11.1814249050       26.4893237769
  H        -9.6638745003       10.4180138043       27.7582456648
  H       -10.8734320565        9.4725731356       26.9430177060
  C        -3.8994218942       14.2463901468       38.5079638791
  N        -3.8510816646       15.5921040313       38.6801756447
  O        -2.9267553348       17.4877559653       37.5987008404
  S        -4.9072268021       13.2954583102       39.5682616902
  C        -4.2528193204       16.3405927672       39.8422108412
  H        -4.5132506912       17.2925081468       39.4733448486
  H        -5.1303166370       15.9039895569       40.4320180775
  C        -3.0295425242       16.4519082223       40.7574815685
  H        -2.3811061726       17.3295788199       40.5593660323
  H        -3.2865335364       16.5921716393       41.8301793747
  H        -2.3672122328       15.5707841028       40.6349860866
