352
i=
  H         5.4149401251        2.2525329060       12.3584983692
  C         4.4452840114        2.5559879720       12.6780464398
  H         4.6155347625        3.6419634491       12.5739007836
  C         3.5259859896        2.1914559400       11.4763981372
  C         4.0695072962        2.2742907054       14.1461571947
  C         4.1497114938        2.2970483680       10.2156341921
  H         2.7067255204        2.9201353952       11.4890518227
  H         3.0572654104        1.2333434740       11.5058414228
  H         3.5366427751        3.0941286159       14.5959632841
  H         4.8792600400        1.8906928281       14.7383315159
  H         3.3538436774        1.4868936637       13.9569750974
  C         4.6550507182        1.0824705577        9.4738808670
  H         3.3335278269        2.7412229390        9.6162460005
  H         4.7565613557        3.1590112444       10.3286823945
  C         5.5243859827        1.3133365044        8.2490277315
  H         3.8515837112        0.4208919170        9.2058676123
  H         5.3368314763        0.6435708212       10.2112668264
  C         6.6007895340        2.3618587186        8.3970875954
  H         4.7623128716        1.6829364326        7.5875895545
  H         5.8862579574        0.3645612828        7.7883335798
  C         7.9626411288        1.7598980779        8.8726935396
  H         6.6249527004        2.7954890410        7.4318380771
  H         6.3816607056        3.1239527237        9.0380161632
  C         9.0548217053        2.7773432640        9.2656764443
  H         8.3439430593        1.1334552694        8.0726299366
  H         7.7946253806        1.1369415476        9.7559880265
  C         8.4799629986        4.0073482409        9.9107710396
  C         9.4743682039        3.5208050477        8.0366278459
  C        10.1487030408        2.1233141944       10.1014950688
  C         8.6515525488        5.1185411830        9.1287939695
  C         7.9490425605        4.3299491183       11.1557552220
  C         9.2993111674        4.8298305942        7.9315409241
  C         9.9989068633        2.9665003717        6.8754868885
  H         9.7060642250        2.0267794755       11.0895434660
  H        10.4275751889        1.1273287535        9.7955143486
  C        11.3472484956        2.9954702519       10.2921485599
  S         8.1544518400        6.5394366102        9.8607762457
  C         7.7580743426        5.7054054845       11.2535415939
  H         7.9864797563        3.5540005315       11.9427977890
  C         9.7169995763        5.5621343635        6.8344008687
  H        10.1801743004        1.8807701620        6.9471871555
  C        10.3158108516        3.6099457147        5.7221938300
  H        10.9804594761        3.9086063451       10.8341516650
  H        11.7519601519        3.3102196219        9.3435216682
  C        12.4359890063        2.3443662598       11.1872854235
  C         7.2915003931        6.4737880660       12.4725120529
  C        10.2497529952        4.9660057231        5.6727572912
  H         9.5560218855        6.5755440505        6.7347587596
  C        10.8547177129        3.2608287676        4.4892371726
  H        13.2800557006        3.0601160907       11.2092357386
  H        12.8820936205        1.4128485537       10.8218224541
  C        12.0264598352        2.2089308820       12.6371982847
  C         7.4180879363        7.8356264754       12.8017445648
  C         6.8075083993        5.6991464567       13.5886250066
  C        10.6734792103        5.6633873723        4.3334221999
  C        10.9531556490        4.3172593273        3.6405219924
  S        11.3813198147        1.8476389652        3.7661320446
  H        11.6968774098        3.1648226034       13.0783347856
  H        11.2426557198        1.4196057330       12.6699837477
  C        13.1715773136        1.8067819952       13.5411484454
  N         7.8405761510        8.8031858293       11.8964006769
  C         7.2392065478        8.3383335819       14.0600871377
  C         6.5752508316        6.1806905511       14.8662610974
  H         6.6916024687        4.5960090925       13.4937835969
  C        11.9986555353        6.4169501544        4.4195560415
  C         9.4607461137        6.4153691695        3.7603560476
  C        11.4907180387        3.9372892671        2.3816483114
  C        11.6430018617        2.5826800846        2.2830453739
  H        13.9297065638        2.6087815182       13.7695166016
  H        13.8332652659        1.1022622661       12.9985835172
  C        12.5769738222        1.2019891756       14.7501872568
  S         7.9698262665       10.2827353425       12.6427331196
  N         7.3653415574        9.7543162134       14.0290290341
  C         6.8357959199        7.5887105241       15.1672759596
  H         6.3956810033        5.5138456178       15.6645788179
  H        11.9356794475        7.0859474515        5.2433497742
  H        12.2712244011        6.9754997709        3.5031111000
  C        13.2720470742        5.6316382072        4.6922345893
  H         9.0870975042        7.0837848465        4.5817059597
  H         9.7272896405        7.1093859232        2.8736869758
  C         8.2680412786        5.4751483806        3.3635605306
  H        11.7104405276        4.6704155236        1.6848730878
  C        11.9448520247        1.7999681661        0.9693154591
  H        11.5454626387        1.6012785295       14.9010222731
  H        12.2659717090        0.1373044588       14.5669027588
  C        13.3203774410        1.4696908036       16.1011462904
  C         6.7970343971        8.2509420981       16.4318062300
  H        13.0286755148        4.9461048247        5.5710076809
  H        13.5300237830        4.8802934524        3.8947622212
  C        14.5802634039        6.3718683172        5.0095832865
  H         7.8396005641        4.8652778689        4.2157894987
  H         8.6006493212        4.7077307240        2.6752144563
  C         7.1009628583        6.1877307559        2.6882839897
  C        11.8803753407        0.3874358261        0.8016668055
  C        12.3813309511        2.6091235986       -0.2253854779
  H        14.2882456322        1.9301242497       16.0359660455
  H        13.5459950135        0.4676171096       16.4386820396
  C        12.3868394549        2.2737127174       16.9683066500
  H         7.0279967353        9.3014828328       16.3913088200
  C         6.5061795245        7.7584773489       17.7224713393
  H        14.4078994997        7.0248400953        5.9360950725
  H        14.7720060007        7.0172257473        4.1167542563
  C        15.6707899535        5.3576093741        5.3046194182
  H         6.9685152560        7.1049624896        3.3081233272
  H         7.5396672089        6.5485368655        1.7357860154
  C         5.9858071490        5.1906732722        2.2818768893
  N        11.5016331652       -0.6237264857        1.7063556285
  C        12.1524691408       -0.1353467974       -0.4419273243
  C        12.5778113078        2.0305122676       -1.4006795681
  H        12.5280493451        3.6720194394       -0.0910727408
  H        11.5249948312        1.6518574280       17.2885154329
  H        12.0298765068        3.0837952916       16.5043292180
  H        12.8630690780        2.6216014035       17.9006322671
  S         6.1992975118        6.2306057600       18.3156524790
  C         6.5376628748        8.7622746085       18.8739921358
  H        15.2505799682        4.8421893265        6.1569857387
  H        15.7581626678        4.7022242088        4.4444970940
  C        17.0197026845        5.9928830038        5.7192953741
  H         5.7310842543        4.6579854588        3.2380069787
  H         6.4118438360        4.4158052579        1.5328365230
  C         4.8288190550        5.7900842350        1.4829278108
  S        11.6010283609       -2.0666660516        1.0159076578
  N        12.0318280876       -1.5027755126       -0.4682656117
  C        12.4231990794        0.5682770472       -1.5854722772
  H        12.9601413179        2.6504838926       -2.1802057721
  C         6.0367044499        6.8598011167       19.9030831506
  N         6.1346710983        8.2067177363       19.9919795872
  O         6.8076180467        9.9669469732       18.7238410791
  H        17.6816371428        6.0317625300        4.8572403596
  H        16.8957860933        7.0239366838        6.1397316464
  C        17.7361630957        5.2497590620        6.8557882423
  H         5.2685269435        6.2407675815        0.5893969603
  H         4.0164930079        5.0885163186        1.1981669949
  C         4.1714324408        6.9574592005        2.2345461797
  C        12.7191699280       -0.1545903992       -2.7864302214
  S         5.6629109527        6.0193965869       21.4926948134
  C         6.2526137530        8.9824526227       21.2610817272
  H        16.9877770944        5.0830315307        7.6371476763
  H        18.0976578732        4.2557532664        6.5392394476
  C        18.9484457099        5.9438549754        7.4668664433
  H         4.2767199873        6.8152006240        3.3272371877
  H         3.0828394416        6.9067928898        2.1241860916
  C         4.6724640427        8.3363163595        1.9287695012
  H        12.4236009358       -1.1309187422       -2.8324925333
  C        13.2432310279        0.2584905884       -3.9865832882
  H         5.6456307005        8.5796499908       22.0628116248
  H         5.8505026396        9.9590021503       21.0751499942
  C         7.6521016499        9.0281211332       21.7283390937
  H        19.4181093647        5.2251764631        8.1185826388
  H        18.7199364518        6.8435388164        8.0692005012
  C        19.9002639550        6.2175759655        6.3509018406
  H         5.0685893594        8.7123961045        2.8991116887
  H         5.4327056429        8.2900397526        1.2553059590
  C         3.6947972919        9.3932037854        1.5023831703
  S        13.8507806154        1.7824189691       -4.3923303337
  C        13.3608271817       -0.7734159041       -5.0222522118
  H         7.7722902900        8.4106678943       22.5844184705
  H         7.9164198446       10.0386484601       22.0791957591
  H         8.3701291518        8.7485909047       20.9506924751
  H        19.9581081233        5.3278104239        5.6706875599
  H        19.4847619985        7.0550583469        5.8458464179
  H        20.9319046357        6.3740589250        6.7023096729
  H         4.1376380155       10.2068837777        0.9734559659
  H         2.9557015807        9.0313899959        0.8696928375
  H         3.3334512712        9.7958237742        2.4533785040
  C        14.1931220561        1.0260825703       -5.9711625558
  N        13.9293874786       -0.2824652429       -6.1180898448
  O        13.1867149205       -1.9899532004       -4.7473476116
  S        15.0477523955        1.8260946588       -7.2614062714
  C        14.1168589421       -1.0930843260       -7.3364504171
  H        14.0110504306       -2.0879914655       -7.0076209549
  H        15.1551844342       -1.0017962737       -7.6742848657
  C        13.1899045310       -0.8293037195       -8.4812836352
  H        12.2235067454       -0.5419910534       -8.0634532107
  H        12.9119389842       -1.7928097483       -9.0067074266
  H        13.5874976861       -0.0950934456       -9.1507859388
  H        -2.9774072567       14.8803336088       15.9943717150
  C        -2.8892929577       13.8475198744       16.1657516331
  H        -3.8247967282       13.5850768823       16.6044162249
  C        -1.7511978753       13.6969463047       17.1569402632
  C        -2.6854432860       13.0905429941       14.8873759056
  C        -2.2616811007       13.8706189051       18.5324601558
  H        -1.3944726790       12.6335617621       17.0456377352
  H        -0.9454827406       14.3778711289       16.9218980145
  H        -2.7072958295       12.0356840339       14.9617160549
  H        -3.5285845962       13.3649862514       14.2727581608
  H        -1.8836680506       13.5552471208       14.3578219573
  C        -1.2394511456       13.3720597180       19.6030027464
  H        -3.1072669388       13.2632359963       18.7034387464
  H        -2.5858000597       14.7818206534       18.8324682135
  C        -1.8858902808       13.5994457367       21.0242265985
  H        -0.8347435079       12.3960602804       19.3562242313
  H        -0.4030291718       13.9810646705       19.4352737718
  C        -1.0683008865       13.0286717741       22.1809928822
  H        -2.8664327481       13.1086446371       20.8999383319
  H        -2.1938776606       14.6212816766       21.1148977178
  C         0.2409951807       13.8448429506       22.5230376418
  H        -1.6743593394       12.8945316426       23.0757240995
  H        -0.9038280001       12.0119599594       21.9685856928
  C         1.2808783179       12.9910909954       23.3352518867
  H         0.6073681769       14.3078055377       21.6081527080
  H         0.0402124989       14.7519372409       23.0976545434
  C         1.6515323903       11.6107741512       22.6868095844
  C         0.8113302457       12.2288392084       24.5092272906
  C         2.5686530234       13.8842626543       23.4801556907
  C         1.4299130313       10.4675713917       23.4565124259
  C         2.2482466351       11.3034253569       21.4399928827
  C         0.8612742265       10.8831007207       24.6354445201
  C         0.3905025947       12.8803683075       25.6673047060
  H         2.8246998317       14.2183821524       22.4769337889
  H         2.3470352572       14.7082462727       24.1908535233
  C         3.8065240094       13.2149116377       24.0444751554
  S         1.8751246753        8.9649519871       22.7576647312
  C         2.2982202208        9.9134200196       21.3124705292
  H         2.4040175524       12.0990967773       20.8085007186
  C         0.5250963380       10.1879917363       25.7884124245
  H         0.3139371700       13.9204051700       25.6650256852
  C         0.0236997085       12.2725115701       26.7735694532
  H         4.0892009521       12.4022568991       23.3858234325
  H         3.5156637062       12.7352599777       24.9570382467
  C         5.0144073139       14.1170494706       24.2272748100
  C         2.8055012160        9.2739579995       20.0536308361
  C         0.0842309377       10.8545542042       26.9518260744
  H         0.6125108524        9.1391810401       25.8308384235
  C        -0.5012678373       12.5940331261       28.0120963452
  H         5.6528162180       13.6214642368       24.9611809746
  H         4.6915193949       15.0313136795       24.6894230737
  C         5.6674318205       14.5613760115       22.9097572066
  C         2.8708705188        7.9048594305       19.8053000456
  C         3.1794656325       10.1503270109       18.8836661829
  C        -0.3533304843       10.1814671675       28.1490235003
  C        -0.6973492251       11.5074621257       28.8409844443
  S        -0.7453851215       14.1037635209       28.8252213761
  H         6.5044656014       15.1164730635       23.3619271099
  H         5.0190883251       15.3026609889       22.3911621477
  C         6.2800190263       13.6188250236       21.9127145969
  N         2.5532034753        6.9913100911       20.7182102698
  C         3.0633712939        7.3870112529       18.4755000304
  C         3.4950518024        9.6426925498       17.6335827394
  H         3.3866660070       11.1620313252       19.0501496884
  C         0.8176964814        9.3822777704       28.8585525254
  C        -1.6738146852        9.3691664416       28.0261151317
  C        -1.0882156385       11.8634177010       30.1577778861
  C        -1.1942184696       13.2276696782       30.2790834107
  H         7.2598401821       13.8483807864       21.7469671048
  H         6.3964263620       12.5599815704       22.2393754657
  C         5.3977551186       13.8045422497       20.6328114692
  S         2.3122993903        5.5890708196       19.9114755490
  N         2.7584818012        6.0260851242       18.4204501818
  C         3.2753696970        8.2143240894       17.3505320171
  H         3.5841554653       10.3649786797       16.8290294414
  H         1.2271603846        8.7281122040       28.1203532477
  H         0.3577737542        8.7777381028       29.6580261326
  C         1.8318447791       10.2883646577       29.4203558542
  H        -1.6917401236        8.5668130035       27.2938561470
  H        -2.0218095623        9.0160937743       28.9965400078
  C        -2.8459163098       10.2005264949       27.5787946983
  H        -1.3102389647       11.1339098412       30.9549277090
  C        -1.6148381800       13.8866868075       31.5713856416
  H         5.2743912221       14.8387663316       20.4318567669
  H         4.4112574264       13.4078231588       20.8567241689
  C         5.9429994342       13.2738239712       19.2855078552
  C         3.3160448135        7.5614174830       16.0930600446
  H         2.1313542169       11.0519664775       28.6721714564
  H         1.3156568472       10.7773325961       30.2523936979
  C         2.9850788945        9.5094269888       29.9594074125
  H        -2.5161107787       10.9330415787       26.8696770166
  H        -3.3300779581       10.8369070242       28.3214550335
  C        -3.9765152753        9.3980284303       26.9131069206
  C        -1.7395991381       15.3039527413       31.7827071075
  C        -1.8450684092       13.0665141727       32.7991704376
  H         5.5147152046       12.3007142000       19.1156345111
  H         5.5604840681       13.8772148187       18.4446446893
  C         7.4793368415       13.0811572156       19.1130035787
  H         3.1520201557        6.4841714138       16.2510754291
  C         3.4808428224        8.0007925771       14.8199571132
  H         3.2861836040        8.8661141263       29.0406165947
  H         2.7947073894        8.8919598901       30.8342228108
  C         4.1349106443       10.3877599536       30.3833409601
  H        -3.6677426150        8.6531042473       26.1942445972
  H        -4.6089290409        8.8555771730       27.6279976662
  C        -4.8646215253       10.3782971008       26.2633038211
  N        -1.4423533860       16.1848300255       30.7283422344
  C        -2.0636415143       15.8815921556       32.9657706433
  C        -2.1097996940       13.6241642779       34.0561585681
  H        -1.5964582797       11.9762185989       32.7529431951
  H         8.0413627982       13.9241947969       19.4019311623
  H         7.7822656620       12.3034928913       19.8592052167
  H         7.8168739426       12.7048038219       18.1417492184
  S         3.7184723994        9.6161128184       14.2452875983
  C         3.5587024372        6.9716278877       13.7623750451
  H         4.2814182594       11.1397348192       29.5821774891
  H         3.9391252645       11.0122131030       31.2873439822
  C         5.5105448277        9.7041943840       30.4112044820
  H        -4.4660966193       10.7432089196       25.2941482562
  H        -4.9961782002       11.2121835031       26.9551399601
  C        -6.2150955290        9.7630835358       25.9432001526
  S        -1.5876063599       17.6752392996       31.3775840678
  N        -2.2413073885       17.1949360586       32.8066824150
  C        -2.2044155489       15.1450473820       34.1643476174
  H        -2.2053528345       12.9710304690       34.9141232497
  C         3.8900609552        8.8536303517       12.6457113019
  N         3.7691593308        7.5276993894       12.5351347763
  O         3.5219131660        5.8233990641       14.0753352358
  H         6.2561583373       10.4190285974       30.7781212019
  H         5.7596569646        9.4929978245       29.4002619310
  C         5.8054230625        8.4117934698       31.2673778304
  H        -6.0762962367        8.8739896001       25.3403000073
  H        -6.6956870524        9.3723788437       26.8146582562
  C        -7.1894803332       10.7039035101       25.2802972446
  C        -2.4955491881       15.8270701715       35.3563703957
  S         4.3425956732        9.8116769498       11.2319848320
  C         3.9264831323        6.7510410214       11.2746827930
  H         5.9754722974        8.6955021271       32.2626104020
  H         4.9064709967        7.7838838810       31.2107855566
  C         6.9697717416        7.4911903634       30.9091928226
  H        -6.6660878734       10.8428908699       24.3141594014
  H        -7.1805558216       11.6856211124       25.7268241674
  C        -8.5093401321       10.0472043235       25.0743999300
  H        -2.1799887721       16.8817492805       35.3175826281
  C        -3.1119703884       15.4745737424       36.5250144457
  H         4.2358290846        7.2038190300       10.3908478407
  H         4.6986925650        5.9773067332       11.5387596227
  C         2.6325916538        6.0422699982       10.8966987800
  H         7.3337038491        6.8912828032       31.8152241209
  H         7.8611756104        8.0380327265       30.6359801240
  C         6.5768404895        6.5343016245       29.7928681507
  H        -8.9089314300       10.4885516673       24.2187260862
  H        -8.4800903144        8.9416237482       24.8430737148
  C        -9.4370693854       10.1097350895       26.3132177130
  S        -3.9176335532       14.0111414972       36.9367224009
  C        -3.1948226066       16.5896634632       37.5554371524
  H         1.9933489620        6.5295010948       10.1479089967
  H         2.8307811033        5.0248916278       10.5493219553
  H         1.9781601491        5.9560697911       11.7880391572
  H         7.3005177451        5.7380514138       29.7641324279
  H         6.5707869664        6.9966778388       28.8229537639
  H         5.5998145490        6.0838110250       29.8873278443
  H       -10.4340051689       10.5344479643       26.1089740981
  H        -8.9525737986       10.7362605266       27.0876022311
  H        -9.6144270895        9.1900673374       26.8233244067
  C        -4.2173771528       14.8366666049       38.5627226946
  N        -3.7988610370       16.1397419952       38.6556053453
  O        -2.7147270703       17.7256048988       37.3746949883
  S        -4.9071556278       13.8744582899       39.8289788408
  C        -3.9850548668       16.8494802723       39.9275427208
  H        -4.1374492058       17.9273190277       39.7126991961
  H        -4.9267821859       16.5270778594       40.3911775753
  C        -2.8984159942       16.5715350514       40.9838070597
  H        -1.9491843777       16.2142817347       40.5822038853
  H        -2.6514942190       17.4426202343       41.5893520120
  H        -3.4005812410       15.8603133736       41.6586765410
