352
i=
  H         4.3970234632        1.1670844508       12.1103223106
  C         3.7471812348        2.0827572380       12.0011164124
  H         4.3229636318        3.0203089754       11.8371481768
  C         2.8528708373        1.8813986434       10.8236781826
  C         2.9231413500        2.1202680535       13.3193554518
  C         3.5799487557        2.1891108526        9.5887893609
  H         2.1317006781        2.7315104864       10.8239135134
  H         2.3347387120        0.9661450789       10.8643873201
  H         3.6076716345        2.1487883405       14.1781594761
  H         2.1836909913        1.3815389849       13.2230111396
  H         2.5516112779        3.1451707498       13.3275957626
  C         4.7617539923        1.1699712615        9.3311704906
  H         2.9447697404        2.1352263879        8.7184690975
  H         3.8027693127        3.2943019862        9.7600660771
  C         5.5627927595        1.6951267891        8.1452385579
  H         4.2632692592        0.2822184212        8.8618697663
  H         5.3650477425        0.8632935760       10.1904635466
  C         6.6527193218        2.7552575035        8.6018973209
  H         4.9198031276        2.1514440922        7.4080324979
  H         5.9110420713        0.8388647155        7.5230585532
  C         8.0408674243        2.0832725303        8.8793401329
  H         6.8282958589        3.4841274618        7.8035744604
  H         6.1810100110        3.2134905538        9.4957758471
  C         9.1895840416        3.1365782454        9.1284781240
  H         8.2390550069        1.3310467698        8.1372717955
  H         7.9258519857        1.4320835979        9.7207574188
  C         8.7384502300        4.4353598563        9.7862567388
  C         9.5796461826        3.9178749666        7.8750391191
  C        10.3963841693        2.4657972510        9.7575975050
  C         9.0132036578        5.5920539268        9.0859271209
  C         8.2817953227        4.7214048808       11.0747934953
  C         9.4295921584        5.2489259296        7.8201145134
  C        10.1107833914        3.3153262050        6.7027046829
  H        10.1914236605        1.9510776513       10.6738802114
  H        10.7489230301        1.6078009204        9.1388763855
  C        11.6221170846        3.4266620241        9.8003657497
  S         8.6112362548        7.0249778133        9.9670041212
  C         8.0869518583        6.0673737315       11.3003448463
  H         8.1622796055        3.9383883005       11.7959832259
  C         9.7924546620        5.9041372194        6.6939539206
  H        10.1576309083        2.2876025017        6.6969728807
  C        10.4446138308        4.0112799287        5.5527588831
  H        11.3376379010        4.4786797262        9.9388325832
  H        12.0792343754        3.4052924559        8.8335073806
  C        12.7006974278        3.1115506596       10.8571805179
  C         7.6980535092        6.6266729050       12.6794324015
  C        10.3965415184        5.3577399613        5.5665869779
  H         9.7155980737        6.9323735404        6.7039753608
  C        10.8569288554        3.7130607695        4.3062798405
  H        13.6355979137        3.6590778244       10.7625171497
  H        13.0172887297        2.0090871802       10.7434869548
  C        12.1310094473        3.2120104406       12.2986325594
  C         7.5565162216        7.9868793675       12.9879175743
  C         7.3997397630        5.7253812131       13.8063744509
  C        10.8428421909        6.0878995700        4.2999183256
  C        11.1076766284        4.8158387610        3.5402070589
  S        11.0930277354        2.1818910336        3.6172785063
  H        12.2952435578        4.1814745976       12.6602703596
  H        11.0488503019        3.0422214639       12.4070969928
  C        12.8574410466        2.2976612636       13.2754086266
  N         7.8859536384        9.0037014226       12.0432462904
  C         7.1911033117        8.4612681075       14.2351322214
  C         7.0966015339        6.1946466853       15.0991318926
  H         7.5383770773        4.6902856689       13.6561886748
  C        12.1724900571        6.8213665733        4.6815943137
  C         9.7976659553        7.0318558450        3.7313456825
  C        11.3659441580        4.3084236405        2.2087286708
  C        11.4554495889        2.9324143510        2.0951105313
  H        13.9312268348        2.5481996195       13.1391420767
  H        12.5073065123        1.2829209465       13.0532031919
  C        12.4819994333        2.5551686775       14.7236589131
  S         7.5661965269       10.3822059714       12.7889972896
  N         7.1199343489        9.8260834188       14.2502732656
  C         7.0387205738        7.6414451868       15.3295147688
  H         6.9599257187        5.4893492115       15.9278766172
  H        11.8072509511        7.5189269707        5.3119017246
  H        12.7195594988        7.3189907933        3.8674875300
  C        13.2595258694        5.9174434137        5.1371881786
  H         9.5306960562        7.7710148886        4.4519002752
  H        10.2903817411        7.5136715172        2.9062486500
  C         8.5791553047        6.2316940396        3.2278404238
  H        11.4691113006        5.0027926001        1.3942583123
  C        11.6397193592        2.1021263205        0.7930542221
  H        12.2780185748        3.6297621406       14.9858534071
  H        11.4652142249        2.1005898490       14.9210139297
  C        13.2944516629        1.7220472463       15.7180708716
  C         6.7999351588        8.3068574499       16.5873715700
  H        13.0097444084        5.6378940564        6.1360437911
  H        13.4283594103        5.0439823577        4.5494137029
  C        14.5522302286        6.6282193341        5.3022394307
  H         8.1921413639        5.6582437106        4.0458789512
  H         8.7917018973        5.5259044914        2.3983812417
  C         7.4685067157        7.2186504650        2.7627238967
  C        11.6529325511        0.7274690014        0.7152412753
  C        12.0931835034        2.8512124522       -0.4217566086
  H        14.3148051654        2.1071636669       15.5735856377
  H        13.1788815598        0.6334818052       15.4189598402
  C        12.9396513682        2.0291188380       17.1449235158
  H         6.5777888186        9.3416370422       16.5223631708
  C         6.4276259517        7.9194028832       17.8562475882
  H        14.4089344877        7.5405667264        5.8276826071
  H        14.9235305573        6.8099884434        4.3029357687
  C        15.5250521411        5.9379814176        6.2161879138
  H         7.1215045676        7.8472992093        3.6090944272
  H         7.8867764290        8.0226025703        2.1267872308
  C         6.2832451903        6.5213608719        2.0806957314
  N        11.4685204166       -0.1436082153        1.7781627702
  C        11.8366048465        0.1153008100       -0.4773082110
  C        12.3480602961        2.2149599749       -1.6182077396
  H        12.0761417515        3.9281067999       -0.4423557218
  H        13.3154347361        2.9671297898       17.3950148821
  H        13.2023607084        1.1858033272       17.8126137107
  H        11.8533043814        2.0896668197       17.2479988063
  S         6.0121048994        6.3337972019       18.3683041754
  C         6.3647063313        9.0077454036       18.9022003664
  H        15.1644336245        6.0330589447        7.2311423230
  H        15.6080796491        4.7969776340        6.0764663576
  C        16.9437564068        6.4482682015        6.1282938144
  H         5.8554178750        5.7610460168        2.7658538892
  H         6.6440824303        5.9693159647        1.1969249676
  C         5.1670847123        7.6399386606        1.7436000452
  S        11.5455691877       -1.6777011552        1.1989948099
  N        11.8325218917       -1.2794735867       -0.3240066038
  C        12.3079482424        0.7072947565       -1.6799192700
  H        12.5930108038        2.7986496116       -2.4464117844
  C         5.9103015819        7.0597721111       19.9616544851
  N         6.0813266868        8.4175316825       20.0584671738
  O         6.5622633699       10.2150515398       18.6909046906
  H        17.1455166057        6.1469173025        5.0778580963
  H        16.9387542983        7.5525753270        6.0396682528
  C        17.9470803502        6.0280940206        7.1607373277
  H         5.6551634380        8.5047609357        1.2398345604
  H         4.5232532228        7.2812110446        0.9818946206
  C         4.2224813975        8.0354483242        2.8430907914
  C        12.7077059616       -0.1571184363       -2.7967779906
  S         5.3243581192        6.2737147045       21.4238330842
  C         6.0907352157        9.2109935711       21.3096741723
  H        17.8673068697        6.7116355483        8.0568279202
  H        17.8638495469        5.0029440821        7.4808456531
  C        19.3335216455        6.3471299290        6.7053096351
  H         4.7611256103        8.4534236363        3.6285225030
  H         3.7155637100        7.1247489530        3.1496267435
  C         2.9870087127        8.9398384986        2.4200988961
  H        12.6620657726       -1.2391099885       -2.7264619703
  C        13.1795029909        0.2243405803       -4.0204774897
  H         5.3793103100        8.8627970376       22.0538272823
  H         5.7080079774       10.2459680209       21.0463387086
  C         7.5289210019        9.4543653339       21.8564713400
  H        19.9203771338        6.7364582387        7.5788132310
  H        19.3023701695        7.1423901751        6.0665137389
  C        20.0374142536        5.3070717509        5.9049598415
  H         2.2101271155        8.2998974580        2.0134610693
  H         2.5738084135        9.2014717146        3.3565321605
  C         3.2094593020       10.1960642457        1.5294964732
  S        13.6722950417        1.8054623498       -4.6316301973
  C        13.3586208653       -0.7952782882       -5.1265405263
  H         7.7361056429       10.5466905383       21.6305285221
  H         8.2660970738        8.8447246167       21.3741886458
  H         7.6553481198        9.3544767773       22.9409784733
  H        20.2984461111        4.3885134843        6.5070471958
  H        19.4417024918        5.0773038062        4.9886518931
  H        20.9276748646        5.7295069833        5.5766902552
  H         4.1178897627       10.7267033662        1.7148000427
  H         3.3822238095        9.8874290288        0.4688020398
  H         2.4121932703       10.9237184823        1.6183645557
  C        14.0930099554        1.0575916882       -6.2159548755
  N        13.9618547962       -0.3146072366       -6.2181797533
  O        12.8806622858       -1.9108890598       -5.0075077023
  S        14.7798830526        1.8918656982       -7.6441708384
  C        14.1343379785       -1.1933124592       -7.4118277149
  H        14.2261984060       -2.1766498841       -7.1055415291
  H        15.0674508369       -0.9004689276       -7.9183371729
  C        12.9388625892       -1.1833902904       -8.4735731674
  H        12.0091775913       -1.1519800639       -8.0001081335
  H        13.1058134191       -2.0877351905       -9.1139248289
  H        13.1016726709       -0.3034929924       -9.1286772918
  H        -3.9007444851       13.5594163240       16.1421096970
  C        -2.8442975968       13.6953085287       16.1247784962
  H        -2.3919915825       12.7189012620       16.0039008957
  C        -2.3728345901       14.5556260924       17.3078108705
  C        -2.4125908727       14.4078319024       14.7869119566
  C        -2.6819151245       14.0078009992       18.7272541216
  H        -1.3430839612       14.5622030010       17.0979222562
  H        -2.6993263589       15.5783353861       17.2688880650
  H        -3.1416006693       14.5505306556       14.0327852398
  H        -1.9393456397       15.4100267929       15.0551159252
  H        -1.6251448572       13.8794588990       14.2555874134
  C        -1.5179118243       13.8688899802       19.7128335209
  H        -3.2359749409       13.0833604677       18.7209728849
  H        -3.4124153807       14.6280069861       19.1064215815
  C        -2.0719339448       13.8357462661       21.1951985802
  H        -0.9691752055       12.9318803651       19.6669786410
  H        -0.8032411780       14.6784397511       19.6323287672
  C        -1.1400777481       13.1956939930       22.1792186509
  H        -2.9269170086       13.2197055033       21.1246628686
  H        -2.3440177519       14.8605523931       21.5482102440
  C         0.2269938771       14.0257551837       22.3586645528
  H        -1.7014653966       13.0538708606       23.0925755417
  H        -0.8867533617       12.1764698827       21.9284516910
  C         1.3625010617       13.3543915298       23.1154268298
  H         0.5644144409       14.4635056072       21.3800642104
  H        -0.1005409372       14.8676114958       22.9812254981
  C         1.7018337672       11.9312919879       22.5215895006
  C         0.8509340005       12.6162313547       24.3806746710
  C         2.6240641015       14.1952585278       23.3530395809
  C         1.3874691229       10.8567214354       23.3189778953
  C         2.1613176197       11.5330951969       21.2450648200
  C         0.9665714439       11.2799938768       24.5638583927
  C         0.3859200475       13.2901921413       25.5180760768
  H         2.8306635699       14.7787230122       22.4234437596
  H         2.2472425578       14.8428723605       24.1233941231
  C         3.8578620867       13.4880768965       23.9652420549
  S         1.6671106091        9.3344757085       22.6091980937
  C         2.1595252559       10.1416187565       21.1716701310
  H         2.3382985174       12.2495383506       20.4186052108
  C         0.5799783381       10.6503257346       25.6962512414
  H         0.4693117265       14.3440972440       25.5589878480
  C        -0.0642933023       12.6555581722       26.6533327015
  H         4.1648542017       12.6354753925       23.4366870230
  H         3.5599006900       12.9731153284       24.9142177573
  C         5.0411862604       14.4487280778       24.1408678317
  C         2.4771438088        9.4248554061       19.8670031756
  C        -0.0106081909       11.3123068911       26.7938378439
  H         0.5357778301        9.4979744370       25.6896536473
  C        -0.6017504060       13.0321874476       27.8704879983
  H         5.7568828803       13.8957004034       24.7709375125
  H         4.7337640114       15.3679517583       24.6029089056
  C         5.6897258222       14.8339925945       22.8294000460
  C         2.3719165168        8.0132949631       19.7259908270
  C         3.0259379350       10.2099886305       18.7743122133
  C        -0.4037558415       10.5606534156       28.0476607236
  C        -0.7231208184       11.9559492924       28.7085752702
  S        -0.8609763717       14.5967158412       28.6647942440
  H         6.4385158464       15.6174525007       23.1517914731
  H         5.0078477375       15.3506773855       22.1671659602
  C         6.4508284194       13.6665145895       22.2269429996
  N         2.1783117240        7.1045678472       20.7908430191
  C         2.5972681205        7.3424809026       18.5294955332
  C         3.3371321455        9.5706201038       17.5521358656
  H         3.1998758856       11.2995015521       18.8713796186
  C         0.6861904577        9.8771505400       28.8846405434
  C        -1.7530642358        9.7800450828       27.8449324890
  C        -1.0103410547       12.3771379036       29.9995614558
  C        -1.0285970284       13.7715132305       30.1194229035
  H         7.4709149403       13.9147040423       22.0866726314
  H         6.4634372968       12.8557754625       22.9343986129
  C         5.8347117968       13.2104480253       20.9762968492
  S         2.2783556201        5.6045198566       20.2150524932
  N         2.4924803726        5.9718258199       18.6134904733
  C         2.9906881845        8.1019340231       17.3782819613
  H         3.7704266660       10.1745946564       16.7569321034
  H         0.9686835897        8.9561371654       28.4910512581
  H         0.4270023699        9.7622488729       29.9296303805
  C         2.1428982513       10.6061788416       28.8891501898
  H        -1.6576865853        9.0435414491       26.9984070405
  H        -1.9505835371        9.2836003043       28.7516645118
  C        -2.8962350972       10.7106698388       27.4492872612
  H        -1.0785893888       11.6660061690       30.8366158615
  C        -1.2447149078       14.5325061539       31.3849685472
  H         4.8098482562       12.9929792216       21.0922388326
  H         6.3895909728       12.2817059288       20.6081483423
  C         6.0428332421       14.2622260236       19.8573607121
  C         3.1673839303        7.2923605906       16.2269664434
  H         2.3887091678       11.0397540907       27.8730752279
  H         2.3085762060       11.3644243325       29.6736866315
  C         3.1823513113        9.5293571019       29.1379917537
  H        -2.6037243716       11.3792134916       26.6225018192
  H        -3.2327806708       11.2766487571       28.3081823954
  C        -4.0562859607        9.8611847384       26.9039565796
  C        -1.2780417173       15.9556216895       31.4413372843
  C        -1.4682867365       13.8521412951       32.6612258338
  H         5.2625755678       13.9957869798       19.2353093087
  H         5.8919585392       15.2736064667       20.2041906982
  C         7.4030992026       13.9820025252       19.1664887099
  H         3.1013449653        6.2439462284       16.3910805248
  C         3.4153056035        7.6310591957       14.9428431862
  H         3.1345291512        8.8770669893       28.2803779532
  H         2.7723911790        8.9998200791       29.9468407377
  C         4.6582618920        9.9315324835       29.4530758675
  H        -3.7409259926        9.3004664426       26.0196587862
  H        -4.3529503416        9.0305770079       27.5860284938
  C        -5.2711025302       10.6515447035       26.5601593072
  N        -0.8980297171       16.8272089998       30.4450379610
  C        -1.5999967094       16.6246085882       32.6126352274
  C        -1.8368019978       14.5185506014       33.8024885355
  H        -1.2589243137       12.8045566951       32.6916246203
  H         7.3745590403       13.7813649497       18.0499889514
  H         8.1053226890       14.7592414574       19.3233108721
  H         7.8402828517       13.1161887019       19.6134644303
  S         3.6961931146        9.2444310723       14.3104085533
  C         3.5589226379        6.5047662754       13.9953160049
  H         4.9314388792       10.8660351999       28.9951995488
  H         4.5782099192       10.1937385789       30.5324958254
  C         5.7933734784        8.8587890712       29.4319118731
  H        -5.0825599473       11.7498322533       26.4536972802
  H        -6.0436391189       10.6278429927       27.3214316085
  C        -6.0342977137       10.2784050032       25.1944920983
  S        -0.9849864405       18.3555940331       31.0053258801
  N        -1.4811644691       17.9666461533       32.4954636979
  C        -2.0861313619       15.9599330634       33.8012530318
  H        -1.9337147057       13.9479461547       34.7018913783
  C         3.8304770982        8.4219569719       12.7839463290
  N         3.7261204059        7.0781803054       12.8076268278
  O         3.5408510016        5.3270106549       14.3263243314
  H         6.7913726972        9.3413548610       29.3284511434
  H         5.6475096198        8.2289209671       28.5466230233
  C         5.7997734566        7.9597894559       30.6961276762
  H        -5.4943699616       10.7931020225       24.3964878415
  H        -6.0233576682        9.2390234638       24.8934674908
  C        -7.4353481153       10.7417476543       25.1582286823
  C        -2.4659585378       16.7176730154       34.9588235132
  S         4.2684988206        9.3126740381       11.3220757288
  C         3.6905571730        6.2190855180       11.6264464624
  H         6.5808132381        8.4686487784       31.3134938158
  H         4.8279878206        7.9663780265       31.2409702589
  C         6.1564527002        6.5008759638       30.4213473726
  H        -7.7894646522       10.9848824889       24.1052253085
  H        -7.5438305650       11.6616167602       25.7357100535
  C        -8.3893779086        9.7389359563       25.7572046604
  H        -2.5545437369       17.7899017882       34.8704341639
  C        -2.9588919196       16.3562989015       36.1597769883
  H         4.0471880179        6.6919279805       10.6648353827
  H         4.1193902558        5.2067253296       11.7121417836
  C         2.2169687058        5.9738246419       11.3717727410
  H         7.0132034741        6.5209475519       29.7446787645
  H         5.3125214577        6.1906938719       29.8398369166
  C         6.1892595037        5.7727575381       31.7749738175
  H        -8.4195738724        8.9677502761       25.0019739177
  H        -8.0139495544        9.3068818341       26.6238524666
  C        -9.7638551084       10.3590831623       25.9288990219
  S        -3.3741793278       14.7678153017       36.7650108953
  C        -3.1343339091       17.4427133200       37.2146243854
  H         2.0835113970        6.2356885659       10.2939534366
  H         1.7672120851        5.0111437560       11.5664993957
  H         1.5539034242        6.7467466484       11.8632590514
  H         7.1396338120        5.8627173246       32.3907884646
  H         6.0281687152        4.6920733697       31.8112558155
  H         5.4455595652        6.2320055066       32.3670725918
  H       -10.1516591011       10.5496739779       24.9375234354
  H        -9.8380643460       11.2857980678       26.5421611999
  H       -10.4558016605        9.6480355798       26.4198534174
  C        -3.7463901457       15.5755255931       38.2941867814
  N        -3.6849679407       16.9028401138       38.3458104235
  O        -2.8375134348       18.5638172069       37.0819492688
  S        -4.5344596075       14.6880953965       39.6059456995
  C        -3.9251768765       17.6508792804       39.6495030326
  H        -4.3431170972       18.6326857772       39.2916788963
  H        -4.6887705457       17.1243574111       40.2561623203
  C        -2.6256011715       17.9163008764       40.2756239844
  H        -1.8590724143       17.9456039817       39.5306011052
  H        -2.4938989683       18.8278055300       40.9748547265
  H        -2.3483001589       17.1142975094       40.9162497787
