352
i=
  H         3.8646605175        0.5839724630       12.3872107570
  C         3.7401028624        1.6281714553       12.5990973115
  H         4.5674517965        2.2229801019       12.7921311561
  C         2.9250331584        2.1365207870       11.3964038797
  C         2.9113559421        1.8133874861       13.8560102346
  C         3.9770111008        2.4691387761       10.2585970025
  H         2.2678088732        2.9516860908       11.5271222042
  H         2.3315557138        1.2107300222       11.0848550569
  H         1.9802596597        1.1662077623       13.9524278951
  H         2.3326059937        2.7504571656       13.9274987338
  H         3.6124560772        1.6019903056       14.6712388150
  C         4.7826864403        1.2289131681        9.8462018837
  H         3.3434299110        2.7364738797        9.4332875460
  H         4.4909569816        3.2476803747       10.6545195924
  C         5.5029525916        1.4456860467        8.4528635375
  H         3.9509750154        0.4592829444        9.5754016432
  H         5.4883783737        0.9283273226       10.6508985885
  C         6.7267838242        2.3949337584        8.4221913246
  H         4.8020788177        1.8738333515        7.7208712187
  H         5.7870198428        0.4905359761        8.0978216541
  C         7.9842620739        1.7123307020        8.7856151008
  H         6.6975210145        2.9084161812        7.4616658293
  H         6.6484372886        3.1740737163        9.0260095099
  C         9.2841781431        2.4569755530        9.1730260265
  H         8.3078910298        1.0567643104        7.8921719835
  H         8.0168697197        1.1041576616        9.6795268264
  C         8.8949359595        3.8632627409        9.8559847285
  C         9.6903897502        3.2682976261        7.9354505413
  C        10.3969787328        1.7354658028        9.8993778904
  C         8.9826511370        4.9370583640        9.0323008834
  C         8.4158711384        4.3227446939       11.1850818246
  C         9.6043584251        4.6285330110        7.8203044568
  C        10.1611460244        2.6796580359        6.7327855046
  H        10.0920543096        1.2721733285       10.7858365083
  H        10.6324089097        0.9332629533        9.3364308615
  C        11.6072534365        2.6451566724       10.1638015882
  S         8.4429465682        6.4137101049        9.6571162715
  C         8.1678030879        5.6705468062       11.2373518292
  H         8.3554540732        3.4799377028       11.8358468785
  C         9.9213492234        5.3063052010        6.7089999482
  H        10.1706176781        1.6512422438        6.6401973470
  C        10.4832160415        3.3490704990        5.6261144524
  H        11.3469724293        3.5502616636       10.7650307658
  H        12.0650568188        2.9328974819        9.2218758067
  C        12.6241246520        1.8662944362       10.9819018534
  C         7.6275142077        6.3487317554       12.4073238813
  C        10.3417656112        4.6856944457        5.5533028619
  H         9.8228690994        6.3586106110        6.7226818816
  C        10.8814323644        2.9664205503        4.3715853049
  H        13.4918439806        2.4414305606       11.0880106744
  H        12.9170525715        1.0156527959       10.5412492569
  C        12.1774650960        1.5729251723       12.5148235240
  C         7.5253445041        7.7920236420       12.5997566728
  C         7.2921906580        5.5266314465       13.6183172331
  C        10.7365946733        5.3863646609        4.3112021522
  C        11.0257283830        4.0770620072        3.5443856090
  S        11.2683529195        1.4980995550        3.5937034524
  H        11.2267086553        2.0898707589       12.6295174080
  H        11.9059350733        0.4388966242       12.5647317925
  C        13.1563739238        1.8225149368       13.5684530906
  N         7.7509983279        8.6976107220       11.5540274946
  C         7.2227441802        8.2840022973       13.8011796166
  C         6.7695130304        6.0302502392       14.8524092029
  H         7.3525457702        4.4763039986       13.4747594299
  C        12.0727729013        6.2281792585        4.5061726072
  C         9.5933017451        6.2922343710        3.5852019850
  C        11.3088403360        3.7075803501        2.1915011793
  C        11.6076411927        2.3704750919        2.1127276998
  H        14.0416284122        2.4995617586       13.2584204501
  H        13.6225478136        0.8471315624       13.9102412064
  C        12.4124219401        2.4309253860       14.8362876654
  S         7.5732047396       10.1775699152       12.2869891590
  N         7.3621145341        9.6209777931       13.8340326090
  C         6.9071304837        7.5140889392       14.9635716896
  H         6.5903761110        5.3508538292       15.7409423686
  H        11.9031349762        6.9099289090        5.1734474911
  H        12.3807807269        6.6763217605        3.6199314620
  C        13.2461938369        5.3630666149        5.0643777364
  H         9.3449620625        7.0571521437        4.2754182053
  H         9.9995718709        6.7568192516        2.7902794034
  C         8.3840076986        5.4667330568        3.1113942897
  H        11.4802322629        4.4553904740        1.4366745628
  C        11.8930155967        1.6575311291        0.8120898079
  H        12.2499807290        3.4848115267       14.6215190585
  H        11.4729588633        1.9527841143       15.0038618639
  C        13.2587381013        2.3582898373       16.0710284925
  C         6.6335407863        8.1572834530       16.1828666659
  H        12.8559689170        5.0627476024        5.8520557202
  H        13.5100312971        4.5208127621        4.3423751087
  C        14.4503500158        6.0881427474        5.2997216769
  H         8.1935141138        4.7161135724        3.8077583783
  H         8.7105647987        4.8433539389        2.2293237896
  C         7.1163476299        6.2869579785        2.6503136735
  C        11.8277299267        0.2721650680        0.6477144129
  C        12.1217482129        2.4165185319       -0.4490318664
  H        14.0312413731        3.1512006915       16.1770085612
  H        13.7390001096        1.3266063646       16.2015565257
  C        12.2305627382        2.6095037095       17.2174657417
  H         6.6730137261        9.2113085108       15.9491642412
  C         6.3569097437        7.8116390338       17.4943842355
  H        14.0616230453        6.9894480337        5.7123593904
  H        14.7327923710        6.3268680103        4.2661972669
  C        15.4945160730        5.2428653594        5.9812528033
  H         6.5645662901        6.6323424272        3.5579881064
  H         7.4620638210        7.2960234901        2.1509808873
  C         6.1475805104        5.6294120097        1.6067522153
  N        11.6002858628       -0.6383304401        1.6875058923
  C        12.0757503793       -0.3997464269       -0.5640459272
  C        12.3466118133        1.7513468317       -1.6271188226
  H        12.2804765670        3.3984840341       -0.4273023216
  H        11.3113671976        2.0406729877       17.1702633331
  H        11.9237034809        3.5958777523       17.3171429655
  H        12.6967323830        2.6212138255       18.2225498962
  S         6.0525827407        6.3044216970       18.0991147746
  C         6.4044979488        8.8560166290       18.5974899027
  H        15.3073631897        4.8582938689        6.9402370792
  H        15.7715486766        4.5434099839        5.3282433362
  C        16.6925077818        6.0614999589        6.3695879445
  H         6.1130159682        4.5899976580        1.7839122987
  H         6.5017975079        5.5636544213        0.7463791171
  C         4.7406525518        6.1337579014        1.5060471144
  S        11.5737660614       -2.1574795842        1.1136118681
  N        11.9496216073       -1.7352615735       -0.4252477955
  C        12.3316598173        0.3243269200       -1.7522576643
  H        12.8302145975        2.4263066874       -2.4508868495
  C         5.9976204984        6.9773603461       19.7255072083
  N         5.9635689981        8.3121532678       19.7378045841
  O         6.7421762905       10.0223747878       18.3086356452
  H        16.9814507532        6.6524230570        5.4671757767
  H        16.4771108084        6.8733233293        7.1100027824
  C        17.7481974379        5.1406737280        6.8746820497
  H         4.1188439673        5.4996000080        0.8894317449
  H         4.4081691951        6.1990448690        2.5429804054
  C         4.8104558721        7.5909195162        0.8914290779
  C        12.4541808839       -0.4006441405       -2.9497555493
  S         5.4779264427        6.1119505015       21.2073920342
  C         6.1640257495        9.0913130419       21.0072108325
  H        17.6143476374        4.7318400052        7.8781436832
  H        17.6573635966        4.2397546731        6.2507160519
  C        19.0483495837        5.8788240124        7.0585838394
  H         4.2324212356        7.4678454335       -0.0524126136
  H         5.9236528072        7.8132297718        0.6033149480
  C         4.1450799717        8.6903671781        1.7322297553
  H        12.0504020588       -1.4333829220       -2.9751172056
  C        13.0616215764       -0.0923811283       -4.2368025867
  H         5.4197919114        8.9450524785       21.8228754411
  H         6.0083784538       10.0970090486       20.6802708479
  C         7.6818179509        9.1714694259       21.4930270436
  H        19.6913230753        5.1930831177        7.6274804383
  H        18.8539345516        6.8657177451        7.7587084750
  C        19.6861613343        6.1299166010        5.7294139354
  H         3.0812335262        8.3905272421        1.8937783663
  H         4.6374352787        8.8037153254        2.7504914768
  C         4.3221953560       10.0278597612        1.0197445988
  S        13.5672562784        1.4696250461       -4.7056340750
  C        12.9437227217       -1.1776865648       -5.2155541111
  H         7.9503046040       10.1775746167       21.9476015551
  H         8.3677385432        9.2262385925       20.6293619299
  H         7.9363264521        8.4390611447       22.3206431087
  H        20.8329290030        6.0603654743        5.8083412123
  H        19.3584592279        5.3814965069        5.0071767510
  H        19.2753911168        7.0179064265        5.2343372487
  H         3.7621338922       10.9064640963        1.5322971492
  H         5.4266110526       10.4175919666        1.1794894232
  H         4.0507605063       10.1210990870       -0.1060408150
  C        13.8654344474        0.5398613039       -6.2384018633
  N        13.4886596712       -0.7249836592       -6.3625499354
  O        12.5824803874       -2.2490546620       -4.9459584831
  S        14.4982159148        1.5286965994       -7.6559536137
  C        13.5581935335       -1.5452448125       -7.5784268559
  H        13.6879706516       -2.5821565875       -7.0970113722
  H        14.5280029461       -1.3233790096       -8.0926777170
  C        12.3838358779       -1.3739223084       -8.4426467539
  H        11.8821471906       -2.2700210026       -8.2224055454
  H        12.7118640565       -1.2584543329       -9.3714490334
  H        11.7213145088       -0.6343301320       -8.1986420462
  H        -3.7642956333       14.7059606090       16.1627165575
  C        -3.1821927804       13.6859201791       16.2370466427
  H        -4.0841293908       13.0142236211       16.4358638718
  C        -2.1054442068       13.5775095490       17.2476912481
  C        -2.8039986930       13.3761029323       14.7768442227
  C        -2.8344538886       13.5859689539       18.6597397905
  H        -1.3331209544       12.8743867118       17.0732205119
  H        -1.4409434377       14.4473934538       16.9706194190
  H        -3.6730523311       13.3278669393       14.1281449426
  H        -2.0307863589       13.9420765679       14.3204618814
  H        -2.3108858916       12.3946191425       14.6453256355
  C        -1.7564119293       13.6445288510       19.7346757002
  H        -3.4253800714       12.6305817522       18.7271946007
  H        -3.5661967972       14.4770823500       18.6345381607
  C        -2.3553826580       13.4973791589       21.1756115762
  H        -0.9095382795       12.8532589686       19.7329916717
  H        -1.1524511409       14.6761529093       19.5790293655
  C        -1.3972770815       12.9301165604       22.2644781029
  H        -3.1510040805       12.8320473058       20.9411902687
  H        -2.6352349832       14.5192048394       21.5515143149
  C        -0.3275668746       13.9366672376       22.5983919234
  H        -2.0481888649       12.7372548868       23.1155306946
  H        -1.0913249762       11.8494373212       21.9718637524
  C         0.9278237131       13.2765585900       23.3050878133
  H         0.0728471919       14.5100729143       21.7793889112
  H        -0.8709409781       14.7493278741       23.1438353163
  C         1.2520423385       11.8233489158       22.5709737111
  C         0.5027602561       12.4920985164       24.4946613335
  C         2.1432304556       14.2128825606       23.4907965804
  C         1.0078957345       10.7431515663       23.3656268210
  C         1.7143987520       11.4755949589       21.3192151988
  C         0.5149199336       11.1695454186       24.5994886881
  C        -0.1058089557       13.1679854393       25.5760660175
  H         2.3952140602       14.8605929067       22.6225672056
  H         1.8602988607       14.8551500423       24.3995636907
  C         3.5354085946       13.4090521065       23.8313120721
  S         1.5226648398        9.2297424440       22.6198394152
  C         1.9766972557       10.1176483093       21.2270616271
  H         1.9775755878       12.2625603533       20.5494934564
  C         0.0520284961       10.4939517324       25.6830298907
  H        -0.2015334765       14.1716308841       25.4373803043
  C        -0.4054762166       12.5367888629       26.6811729190
  H         3.5796420698       12.5823022359       23.0848799151
  H         3.4171705054       12.8908451255       24.8032719979
  C         4.7199174286       14.4117717271       23.7296760459
  C         2.4312398457        9.2531481470       20.0531966349
  C        -0.3380309747       11.1713770714       26.8139297542
  H        -0.0057830996        9.4052436109       25.7040144369
  C        -0.7962346558       12.9513612720       27.9562113992
  H         5.4960350343       14.1588936474       24.4122614072
  H         4.4649163621       15.4296820158       24.0929512154
  C         5.2175814563       14.6154877710       22.3463771003
  C         2.4195948873        7.9158947992       19.8762914974
  C         2.9985367579       10.0028130334       18.8232228666
  C        -0.7499282655       10.4717447874       28.0507575440
  C        -0.9652044076       11.8230561236       28.7632872846
  S        -1.0679214939       14.4997238098       28.7267821946
  H         5.7193587846       15.5455232292       22.3711002966
  H         4.5003704376       14.9024633945       21.6222041495
  C         6.0005494426       13.3761304111       21.8490745249
  N         1.8831936513        6.9848472231       20.7117901846
  C         2.6595852528        7.3012538665       18.6037960962
  C         3.3241396503        9.4199930881       17.6375294325
  H         3.1553727901       11.1461043500       18.9777270466
  C         0.4329175673        9.6231188592       28.5960905606
  C        -2.0417553295        9.5991057238       27.9425823875
  C        -1.3423576961       12.2451917429       30.0722884802
  C        -1.4024961301       13.6402568557       30.1868443238
  H         6.5290839244       13.0113898517       22.6979440753
  H         5.2691249575       12.7127806049       21.4468275297
  C         7.1332189703       13.6427485999       20.8011253101
  S         2.1532793942        5.4753747311       20.2112739378
  N         2.5658405826        5.9281043711       18.7176809815
  C         3.1071773095        7.9704633625       17.4599716499
  H         3.6675544286       10.0218466368       16.6920131209
  H         0.9984896845        9.2691137276       27.8332185123
  H         0.1425390518        8.9324321836       29.2193388338
  C         1.6080134868       10.4301584684       29.2006350832
  H        -1.8746887801        8.7699394564       27.3427653283
  H        -2.1676248042        9.0972905164       28.8167464203
  C        -3.2618145774       10.3696223313       27.5178907229
  H        -1.5258740589       11.5871168895       30.8555764741
  C        -1.6930744742       14.3377467816       31.4840707071
  H         7.9030329754       12.8771987078       20.9392020397
  H         7.6085708131       14.6582490446       21.1290494835
  C         6.4686392730       13.6845264653       19.4494484804
  C         3.1908347966        7.2335450480       16.2416338509
  H         1.9644795642       11.1562752929       28.4225345043
  H         1.3245919059       10.9089935322       30.1381572307
  C         2.7271441555        9.4557733954       29.5410135237
  H        -2.9793651469       10.9715991009       26.6009803032
  H        -3.6367013681       11.0235292351       28.2290590787
  C        -4.4031179193        9.5269161267       27.0185727297
  C        -1.8036509409       15.7044454627       31.6377508367
  C        -1.7051007063       13.4592520465       32.7521343725
  H         5.7392857771       12.8940529197       19.2712688641
  H         5.9623969646       14.7078388815       19.3996074758
  C         7.4985313157       13.5753493919       18.3266697252
  H         2.6852198451        6.2558356701       16.2298808855
  C         3.4467621298        7.5948272530       14.9860932384
  H         3.1553229040        9.0825079727       28.5950553605
  H         2.2741702540        8.5826841385       30.0144789905
  C         3.7697097336       10.0857794238       30.3789414166
  H        -4.0514203659        8.6914843073       26.4482557486
  H        -4.6830577190        9.0568466831       27.9987289817
  C        -5.4495931705       10.4738222151       26.5044946491
  N        -1.6170934593       16.6779189485       30.6759902823
  C        -2.1877903234       16.2252897575       32.8881462709
  C        -1.9804933625       14.0335671466       34.0399795257
  H        -1.6633409701       12.3317631953       32.7300475493
  H         7.0395772111       13.5506564515       17.4382431126
  H         8.0355205618       14.4659345462       18.3362874585
  H         8.1961159604       12.7612418385       18.5529243753
  S         3.7805706256        9.1792090889       14.3623342943
  C         3.4733214818        6.5282205708       13.9967180279
  H         4.0082405253       11.0975023130       30.1035306759
  H         3.4128822973       10.2931097910       31.3559538395
  C         5.1177762744        9.3674467546       30.2166404250
  H        -5.0430729936       11.1692004080       25.7838052801
  H        -5.8303810596       10.9715841534       27.4395292729
  C        -6.5628472357        9.8288796827       25.7294905667
  S        -1.8488577768       18.0751759150       31.3491319111
  N        -2.2031314767       17.5772734484       32.8143912552
  C        -2.1914158640       15.5080086350       34.0999478319
  H        -2.0274858991       13.2612056589       34.8850975971
  C         3.9051477878        8.3702918605       12.8030500184
  N         3.8001792362        7.0130230270       12.8517288503
  O         3.3214520232        5.3700546660       14.3017783479
  H         5.8720311100        9.9528047174       30.5896458837
  H         5.4013563438        9.2568997253       29.1829124761
  C         5.2315749372        8.0385480889       31.0151588939
  H        -6.2070255259        9.3831096528       24.8520406965
  H        -6.9986855043        9.1191228721       26.3438997384
  C        -7.5528367951       10.9331511551       25.1676474282
  C        -2.5034095217       16.2623337113       35.2681757511
  S         4.2184344258        9.0482193992       11.1684174121
  C         3.9054688011        6.0802654003       11.7859786673
  H         5.6386537822        8.3452886258       32.0445197233
  H         4.2546176357        7.8024665197       31.0661038029
  C         5.9094543855        6.8697887069       30.2091279432
  H        -6.9987994939       11.3898688833       24.4859925359
  H        -7.7628969888       11.5772252718       25.9619746951
  C        -8.7649470836       10.2029415161       24.5674362264
  H        -2.1476223666       17.2898233514       35.3899108133
  C        -3.0908210233       15.9469294427       36.4177924745
  H         4.7053585097        6.3445084787       11.0003541626
  H         4.4002911724        5.0451037830       11.9914112662
  C         2.5482397381        5.8489026309       11.0484895885
  H         6.4052467229        7.2349437187       29.3866199328
  H         5.0932889919        6.3871908187       29.7113968520
  C         6.6118359904        5.8827299908       31.0993917255
  H        -9.2758430150       10.8622038368       23.6483667761
  H        -8.4502872706        9.1803429233       24.1220220358
  C        -9.7192609062       10.0343526713       25.6873243039
  S        -3.5641958310       14.3735127583       36.8863064559
  C        -3.1931075275       16.9575491160       37.5144912423
  H         1.6993553429        5.7158441872       11.8092347114
  H         2.4198637654        6.7225090330       10.3755729597
  H         2.5623046601        4.9394075391       10.3310616487
  H         6.1279446672        5.0336651395       31.6707746098
  H         7.2232146534        6.3316305639       31.9344138519
  H         7.2886808340        5.2077724368       30.4607813277
  H        -9.1789532408        9.8815261708       26.6310450764
  H       -10.5789090328        9.3328604161       25.5880246805
  H       -10.3519976205       10.9217088408       25.9285583249
  C        -3.8785055073       15.0360567749       38.4441601245
  N        -3.7081117305       16.3439153150       38.5797994677
  O        -2.7904837192       18.1431859508       37.4010202007
  S        -4.7311334633       14.1351615688       39.7328913401
  C        -3.8823134156       17.1449263249       39.7960903064
  H        -3.9391994054       18.1742225995       39.4711061300
  H        -4.7909374339       16.7297493748       40.2481841366
  C        -2.6192518394       16.9953470570       40.7623366505
  H        -1.6396056426       17.4307272880       40.4206671532
  H        -2.8546180094       17.6926843567       41.5895851840
  H        -2.7757000323       16.0428699493       41.0813522749
