352
i=
  H         4.6207606621        1.4076405512       12.4547136679
  C         3.9475334544        2.1175214318       12.5098638995
  H         4.4240669449        2.9780101179       12.8552609908
  C         3.2701185979        2.1147577602       11.1253335393
  C         2.9453911331        2.0217048117       13.6565542799
  C         4.2259917015        2.5734677561       10.0359211950
  H         2.3946928542        2.7427559353       11.1330659384
  H         2.8446177528        1.1162222995       10.9806846822
  H         2.5772476658        1.0269504341       13.8388359419
  H         2.0606164906        2.6252991782       13.4859685365
  H         3.4716713771        2.2477956113       14.5312854244
  C         4.6330199091        1.3494349078        9.2311099966
  H         3.6881722085        3.2347938858        9.4046134371
  H         5.1171355641        3.1039320626       10.4497827234
  C         5.3011417196        1.8694413754        7.8641581670
  H         3.7942704831        0.6479433921        9.0028603645
  H         5.4364065493        0.8460500146        9.7375492251
  C         6.5057772387        2.7133178864        8.0608164028
  H         4.6322361238        2.2812504575        7.1225764817
  H         5.5082996497        0.8396703040        7.4947978366
  C         7.8165559765        1.8841669087        8.5415195699
  H         6.7020364639        2.9796877902        7.0487378163
  H         6.4252821589        3.7194409944        8.5213510253
  C         8.9962860932        2.8538288373        8.7857965601
  H         8.0932460915        0.9669996144        7.9225740274
  H         7.6058717600        1.4747764040        9.5805834167
  C         8.5447783173        4.2015158405        9.4799729570
  C         9.4300929459        3.5814880754        7.5452885204
  C        10.2141082720        2.2331895302        9.4645232943
  C         8.7968278100        5.3278248346        8.7259365868
  C         7.9729465037        4.5713898497       10.7264225614
  C         9.3498456547        4.9018040171        7.5340737189
  C        10.0037250572        2.9332860066        6.4231876588
  H         9.7750709087        1.3229323717       10.0640425767
  H        10.7144933405        1.5361694852        8.7358384268
  C        11.2807350076        3.1730422903        9.9382855919
  S         8.6579867709        6.7770507386        9.4705123060
  C         7.9946801691        5.9722386029       10.8585349796
  H         7.6007469245        3.8261846013       11.2856554993
  C         9.8479067559        5.5806684487        6.4271653804
  H        10.0286964291        1.8802520821        6.4213762281
  C        10.3291780392        3.5425423423        5.3288502874
  H        10.8962773691        4.0570172809       10.2969812934
  H        11.8787785000        3.5025817106        9.0365859933
  C        12.2047505998        2.5163394922       10.9661931378
  C         7.5057099659        6.6183626612       12.0829302340
  C        10.3656188990        4.9345872742        5.2612721882
  H         9.7194494481        6.6664993553        6.4225552782
  C        10.7941175620        3.1131575807        4.0718307796
  H        13.1520091214        2.9237466531       10.8456299391
  H        12.2631067683        1.5376159904       10.4747348179
  C        11.5921026100        2.4268036449       12.3730609353
  C         7.4767993606        7.9861056673       12.4131316166
  C         7.0875687490        5.7646731827       13.2459940401
  C        10.7619600292        5.6291345315        3.9518055232
  C        11.0894337791        4.1874888282        3.2930453923
  S        11.1148379620        1.6737701279        3.3150148738
  H        11.2249201838        3.4174360098       12.5044408714
  H        10.6490483511        1.8173783985       12.5582575208
  C        12.6667799705        2.1629065873       13.4643517844
  N         7.6722620822        8.9187300896       11.4244641025
  C         7.2333509535        8.4712887721       13.6549797724
  C         6.8297130663        6.2917386078       14.5165290598
  H         6.9879721991        4.7227572929       13.1027271764
  C        12.0457628171        6.4713941942        4.1759907335
  C         9.5467109346        6.5035180886        3.5427516417
  C        11.5184331269        3.7682382902        2.0340884748
  C        11.6128763154        2.3905226167        1.8410221806
  H        13.4082509179        2.8817825451       13.2286382054
  H        13.0529702183        1.2244647114       13.4883837396
  C        12.1279231818        2.2038762616       14.8500441015
  S         7.3334104720       10.4005985964       12.1521697141
  N         7.2657387684        9.8926292453       13.7251757467
  C         6.9435028924        7.6837843028       14.8164523357
  H         6.5071119636        5.6616997257       15.2288880188
  H        11.9704947933        7.3245445853        4.8435378609
  H        12.3472005327        6.8684087130        3.2730265756
  C        13.2199521967        5.7159845320        4.8572233082
  H         9.0250295527        7.1217707831        4.2412935615
  H         9.9133692405        7.3809071088        2.9832825194
  C         8.6848580448        5.8118522254        2.5427154527
  H        11.7959112060        4.4975729089        1.2129580817
  C        11.7588235331        1.7242329232        0.5460965993
  H        11.5791517498        3.1814225985       15.0010905187
  H        11.3646643817        1.4494212280       14.8838112217
  C        13.1670854096        1.9906843061       16.0438679954
  C         6.7365353991        8.3355411547       16.0972143170
  H        12.9595913260        5.3407522652        5.7361474289
  H        13.2644380580        4.9347320117        4.1709139966
  C        14.4761018422        6.5905425428        4.9821143609
  H         8.2838554152        4.8270297244        2.9291757269
  H         9.3408111956        5.4991019172        1.6985562528
  C         7.5443101353        6.6556503313        2.0775617229
  C        11.7752564265        0.3787907872        0.4728984740
  C        12.0141254505        2.4938757426       -0.6940056034
  H        13.7565405390        2.9316819810       15.9228309625
  H        13.7441050310        1.1370802345       15.7107438143
  C        12.4566413216        1.8875514757       17.4141584673
  H         6.8369296135        9.3653665757       16.1420817781
  C         6.5435499740        7.8225578509       17.3515959493
  H        14.3519822690        7.3009204175        5.8089248022
  H        14.7012207353        7.2589460171        4.1723901657
  C        15.8074907829        5.6879473778        5.1867602815
  H         6.9324410984        6.9288058774        2.8016882180
  H         7.9771015706        7.5844101640        1.7089588234
  C         6.6161988505        5.9245909714        1.1711033654
  N        11.7214500443       -0.5083466103        1.4890939901
  C        12.2052423896       -0.3251272657       -0.7224172551
  C        12.2496845019        1.8067879200       -1.8756264512
  H        11.7408324064        3.5828101604       -0.7302608852
  H        11.4553082664        1.5687355956       17.2502985814
  H        12.4285181352        2.9376384566       17.7397796194
  H        13.0475107554        1.3747953664       18.0924084911
  S         6.3548443485        6.1526375924       17.7424010510
  C         6.3345361207        8.7734585432       18.5046728740
  H        15.9494807732        4.8756681296        4.5198293492
  H        16.6913281064        6.3969833517        5.0502462427
  C        15.8295199038        5.2525948105        6.6655530947
  H         6.2731448970        4.9273188268        1.5501268991
  H         7.0565266542        5.7207786165        0.1824742378
  C         5.1912736940        6.6462059018        0.8822487663
  S        11.8074291049       -2.0357605629        0.9090106096
  N        12.2203882421       -1.6869655445       -0.6010390322
  C        12.4527872477        0.3842102585       -1.9082361036
  H        12.3605402818        2.3231899613       -2.7918705934
  C         6.0163209248        6.7250649906       19.3950762737
  N         6.0925333468        8.0963291009       19.6089416448
  O         6.6573986654        9.9425334834       18.4299192287
  H        15.5823610304        6.0472762753        7.3641438251
  H        14.9670185084        4.5629553527        6.7291274978
  C        17.1836235356        4.5467861977        6.9223403008
  H         5.0373230813        6.5399585571       -0.2220849298
  H         4.3710154239        6.1725726968        1.3188611982
  C         5.2589542048        8.0948375716        1.2704080967
  C        12.8245206824       -0.3714350395       -3.0789021225
  S         5.6703116020        5.7342616994       20.8033315429
  C         5.8568288472        8.8213958869       20.7894397427
  H        17.0666069686        3.9370967175        7.9121526302
  H        17.5344220250        3.8215008060        6.1793831562
  C        18.3495666410        5.6104280897        7.1921197548
  H         6.0506834771        8.6241999429        0.9827570810
  H         5.0140208213        8.3222744650        2.3818672851
  C         3.9136926603        8.6909816430        0.5951582924
  H        12.7128800192       -1.4064031276       -3.0261791634
  C        13.3843667004        0.0433556509       -4.2585589872
  H         5.0666625367        8.5374343719       21.3816681509
  H         5.5203301345        9.8276721437       20.5009589402
  C         7.2017187448        8.6881479324       21.5646702873
  H        18.6228708362        5.3874766038        8.1685019270
  H        18.0228335513        6.6258238999        7.3468332808
  C        19.5912586554        5.6087644494        6.1980359944
  H         4.0886734871        8.5973741471       -0.5312141839
  H         3.0263323416        8.2230736520        1.0181724597
  C         3.8047149568       10.1344896392        0.9490443251
  S        13.7763168709        1.6711472806       -4.7305081628
  C        13.4338508621       -1.0531416111       -5.3184459187
  H         7.2493799823        7.7961787105       22.2285206575
  H         7.4523319848        9.7256848840       22.0962464378
  H         7.9266951654        8.3969295944       20.8679189490
  H        19.3680500041        5.9394760881        5.1635717080
  H        20.2910111798        6.3548521117        6.6980469471
  H        20.1496961146        4.6518673464        6.0871706504
  H         4.0587270224       10.3968582934        1.9878563971
  H         4.5823775477       10.7012717998        0.3966083260
  H         2.9271739839       10.6833120539        0.6630373099
  C        14.0789350748        0.8718472670       -6.3146091940
  N        13.7725402081       -0.3983766885       -6.5095993109
  O        13.3810344351       -2.2599757163       -5.1459133060
  S        14.8288838314        1.6856959704       -7.7179714310
  C        14.1463344620       -1.1048075701       -7.7630969228
  H        15.2074134075       -1.2257058011       -7.9132601153
  H        13.7665227013       -0.3837859511       -8.5162136738
  C        13.5372505643       -2.3894359077       -7.9250981898
  H        14.1989482120       -3.1624196363       -7.4289582864
  H        13.2084141812       -2.6850229870       -8.9881494932
  H        12.4801635163       -2.4292716757       -7.7865326475
  H        -3.2951635255       15.1778177470       16.7628965933
  C        -3.0335496739       14.2241282485       16.4361150265
  H        -3.8423646625       13.5609845719       16.5726144675
  C        -1.9899859266       13.8627047858       17.5151616168
  C        -2.4531037049       14.0242385363       15.0153388352
  C        -2.5733694385       13.6375562633       18.9628565458
  H        -1.5681837964       12.9154523232       17.1660845901
  H        -1.1990454892       14.6275990826       17.6685031620
  H        -1.9767703878       13.0722697604       14.8623953405
  H        -3.4371588444       13.9921884263       14.4700120379
  H        -1.8905286331       14.8868751606       14.7320502641
  C        -1.4781368724       13.2781747964       19.9981312743
  H        -3.2620665704       12.7664406982       18.9152629050
  H        -3.0126541784       14.6107067390       19.4703671635
  C        -2.2003385993       13.2637667156       21.4340692236
  H        -1.0855445236       12.3079405370       19.7762996374
  H        -0.7249259486       13.9150998201       19.8031085131
  C        -1.2769743318       12.6754652473       22.5753210377
  H        -2.9125782470       12.5736098327       21.2985372988
  H        -2.6836328076       14.1807413239       21.7070981432
  C        -0.0761432437       13.5673243722       22.7889330676
  H        -1.8144980699       12.6299920045       23.5483960726
  H        -1.1208084482       11.5440537028       22.4939596403
  C         1.0926687497       12.8923405504       23.5518200976
  H         0.3888442718       13.9381051754       21.8425646842
  H        -0.2979249494       14.5580614696       23.3557369189
  C         1.4731693144       11.5550895295       22.7826559048
  C         0.5527119459       12.1658057663       24.7504749089
  C         2.3108476800       13.8438663371       23.7782251686
  C         1.1740451939       10.4241580244       23.5852817321
  C         2.0607091014       11.2225963808       21.5210318718
  C         0.5907515353       10.8216424136       24.8347192705
  C         0.1029835993       12.8819534526       25.9046764186
  H         2.5447722647       14.4044034138       22.8395460154
  H         1.9896540027       14.3658331865       24.7007670321
  C         3.6769444762       13.1131758714       24.0872482364
  S         1.5220211929        8.9387356668       22.8138252637
  C         2.0820334576        9.7983147318       21.3690524744
  H         2.4171245759       11.9880002065       20.8232063285
  C         0.1082223811       10.2928381654       25.9666082136
  H         0.2576112298       13.9892773746       25.8288772665
  C        -0.3335208700       12.2909444204       27.0312014893
  H         3.9249957848       12.2124806522       23.5669099136
  H         3.6075298066       12.8287908868       25.0769750411
  C         4.9851408609       14.0905739369       24.0350539153
  C         2.3389087396        8.9869070253       20.1377510094
  C        -0.4127124136       10.9455984363       27.0592044878
  H         0.1582627196        9.2150368320       25.9712313691
  C        -0.8309821418       12.7089458901       28.2651207585
  H         5.7578371676       13.7871635919       24.7654884839
  H         4.5127874514       15.0688655115       24.3942158718
  C         5.4477303307       14.3138262074       22.6849478312
  C         2.4211347924        7.6316226065       19.9352756115
  C         2.6590545375        9.7520830856       18.8758317646
  C        -0.8721575235       10.2581186912       28.3191262617
  C        -1.1222838753       11.5931901783       29.0321525289
  S        -0.9309541668       14.2045186313       29.0449987677
  H         5.9730547776       15.2953923396       22.7875992553
  H         4.6197600546       14.3848194816       22.0705641337
  C         6.3101518816       13.1167226808       22.2344525825
  N         2.0237099005        6.7004185550       20.8190800429
  C         2.6403641892        7.0678713321       18.6297695303
  C         3.0348900325        9.2288860013       17.6328761926
  H         2.6777894962       10.9209613527       19.0287740434
  C         0.2443059103        9.4461243791       29.0636723734
  C        -2.2263450762        9.5745748410       28.0656416353
  C        -1.5868962226       12.0212073292       30.2998513572
  C        -1.4448383348       13.3838774788       30.4591095459
  H         6.6710887573       12.5206582578       23.0316433024
  H         5.7326743608       12.4402874010       21.6734441523
  C         7.3656051276       13.4540489958       21.1618269365
  S         1.9658441720        5.2171668089       20.0722814050
  N         2.3750472011        5.7532608340       18.5689341051
  C         3.0681446783        7.7697263554       17.4997519038
  H         3.1370773785        9.8980861199       16.6999203911
  H         0.7441131579        8.9053960872       28.3474741897
  H        -0.1356959986        8.8009459294       29.9006222774
  C         1.3612461650       10.3238273838       29.6873161358
  H        -2.0234679973        8.7606415908       27.3914617380
  H        -2.4788708985        9.0575242128       29.0120239133
  C        -3.3703776561       10.4367390125       27.6286020458
  H        -2.0949033224       11.2266401785       31.0497828455
  C        -1.7895547636       14.1855524733       31.6678871614
  H         8.2917157262       12.8762565371       21.5714560904
  H         7.5374910332       14.4972093524       21.3025117028
  C         7.0247395652       13.2602177186       19.6451449118
  C         3.0726106043        7.0922134410       16.1985738089
  H         1.7106552638       11.0386922213       29.0268074470
  H         0.8863078812       10.7617306741       30.4571848697
  C         2.4750956091        9.4569003112       30.2468705173
  H        -2.9367524535       11.1874213513       26.9899303546
  H        -3.8847059545       10.8518335957       28.4279291023
  C        -4.4955648858        9.6916434994       26.8371606274
  C        -1.7949604205       15.5759245860       31.7923518191
  C        -1.8521281128       13.4225297701       32.9907632485
  H         6.6629414516       12.2193060746       19.3707930711
  H         6.2317846027       13.8961343082       19.4645503980
  C         8.2125608792       13.5929459823       18.7198428141
  H         2.7196426716        6.0769792306       16.1762541929
  C         3.3175154399        7.4473344649       14.9056270585
  H         2.8032245711        8.6956250477       29.6565265908
  H         2.1106025424        8.9849850547       31.1824727740
  C         3.7608171289       10.2306160565       30.7085146301
  H        -4.0518592427        9.0605724616       26.1279487834
  H        -5.0665652068        9.1142541279       27.5476418687
  C        -5.4854111633       10.5278043703       26.0300678082
  N        -1.5869072305       16.5666812198       30.7983794000
  C        -2.0853628774       16.2615123269       32.9527502767
  C        -2.1525560596       14.1295127166       34.1357120676
  H        -1.7884420602       12.3852323088       33.0410021732
  H         8.9524162498       14.1958456868       19.2119336660
  H         8.5919313638       12.5977592638       18.4281175683
  H         7.7803127318       13.9433311958       17.7884421853
  S         3.7455054722        8.9554560021       14.2388241289
  C         3.3710410200        6.3538972687       13.8918727113
  H         3.6577165229       11.0777470761       30.1130870070
  H         3.7028305549       10.5596311010       31.7622551753
  C         4.9482458074        9.4321421719       30.3231921664
  H        -5.1276664205       11.1122094289       25.1167361037
  H        -6.1415144365       11.2159049135       26.4921035124
  C        -6.4754150494        9.4730868285       25.4176592543
  S        -1.7117923565       18.1032397929       31.3816970603
  N        -2.0757209131       17.6178450145       32.8985285307
  C        -2.2251332770       15.6054595859       34.1722931638
  H        -2.1787029718       13.5074417120       35.1117531049
  C         3.6830560800        8.1113540403       12.6372768971
  N         3.6868246382        6.7714788466       12.7194805972
  O         3.2783324458        5.1181297889       14.1298160682
  H         5.7431399771       10.0796466331       30.4620426446
  H         4.9684322530        9.1663264104       29.2488116434
  C         5.1797784110        8.0752635767       31.0640110080
  H        -5.9957303136        8.8635328637       24.6920198696
  H        -6.6922840542        8.7211591763       26.1542809359
  C        -7.8062746951        9.9622492225       24.7057882808
  C        -2.4939554521       16.4169550790       35.3644931433
  S         4.3234338000        8.9213675350       11.2498147439
  C         3.6577443530        6.0283280998       11.5159411897
  H         5.7432692736        8.1997724934       31.9255409979
  H         4.1913341612        7.7238832721       31.4015358218
  C         6.1648191509        7.1505424832       30.2799000459
  H        -7.8365606516        9.2922320731       23.8491772912
  H        -7.7833698546       11.0812405830       24.3979112643
  C        -9.0697788747        9.8514198175       25.6881920544
  H        -2.2229104854       17.4998379959       35.1952744354
  C        -2.9988323324       16.0661848078       36.6471881671
  H         4.6118256754        6.2830657510       11.0456647621
  H         3.7426002438        4.9102638245       11.8132432040
  C         2.4212353374        6.2158931610       10.8222896425
  H         7.1318322145        7.7333105208       30.1065007408
  H         5.9697781812        6.7759147335       29.2679056282
  C         6.4380090158        5.9064836314       31.1883349278
  H        -9.9682207644        9.8577527709       25.2371096355
  H        -9.1422576482        8.9656186753       26.2592831031
  C        -9.0075014988       10.9442746623       26.7534044390
  S        -3.7824041818       14.5492737340       37.1461489066
  C        -2.7802971898       16.9350096148       37.7525843629
  H         2.3691114206        7.2123264289       10.4408984873
  H         2.2719619134        5.4639616057       10.0117664133
  H         1.6093559333        6.0782454303       11.5862306201
  H         5.5179929073        5.4763283242       31.4570674487
  H         6.9229502128        6.1408297535       32.0678101463
  H         7.0873539914        5.2460472305       30.7407252438
  H        -8.4158357777       10.5895398911       27.6178357138
  H        -9.9826621306       10.9502505391       27.2073724773
  H        -8.5579768390       11.8802904929       26.5372678492
  C        -3.9310100357       15.2696611408       38.7156916534
  N        -3.3708841738       16.4978261313       38.9340161647
  O        -2.4577601322       18.1150952257       37.5828810876
  S        -4.2788262235       14.4149998300       40.1911382398
  C        -3.5438981264       17.3033270512       40.1171381421
  H        -4.0331804558       18.2204538111       39.7972156246
  H        -4.0298807770       16.9882535153       41.0008568825
  C        -2.1905082275       17.8340522500       40.5699441257
  H        -1.7441581608       18.6336343199       40.0034647717
  H        -2.3602188748       18.0672690509       41.5625248839
  H        -1.4324042929       17.0298961378       40.3814577230
