352
i=
  H         4.2995507213        1.4798664077       12.2461295824
  C         3.8165012778        2.4150756724       12.3987502126
  H         4.5668133793        3.2606596711       12.4046504733
  C         2.9064998937        2.5019929978       11.2034803057
  C         2.9945566569        2.3644574469       13.6717730666
  C         3.7904463387        2.7603064080        9.9547016742
  H         2.2820119424        3.3879495335       11.1568006178
  H         2.2068415511        1.6338767614       11.1685133454
  H         3.6008736856        2.4447067141       14.5539249126
  H         2.4108343409        1.4349462680       13.8161741934
  H         2.3368564488        3.3124433319       13.6959786211
  C         4.8100327249        1.5735693987        9.7133958613
  H         3.0808657213        2.8919255605        9.1624421788
  H         4.2679525703        3.7325417805       10.0333465222
  C         5.3823023315        1.5730206309        8.3790484177
  H         4.3251798161        0.6185785952        9.9063161708
  H         5.5821858993        1.7550840353       10.4649325885
  C         6.5804642540        2.4947113095        8.2386326708
  H         4.6869750559        1.7452324375        7.5770825324
  H         5.5577086129        0.5833763146        8.0566441144
  C         7.8885060036        1.8775730761        8.7854077823
  H         6.6019692522        2.6220763964        7.1780361388
  H         6.3284483184        3.3709391874        8.7640155485
  C         9.0348283876        2.8809266494        9.0584645258
  H         8.3250590365        1.0920512938        8.1742523349
  H         7.6642038867        1.3330497862        9.7109123474
  C         8.5996298034        4.1900425906        9.7150494333
  C         9.4562783033        3.5799724566        7.8233830389
  C        10.3090914502        2.2437173070        9.8596103389
  C         8.9650266675        5.3480694729        8.9877588178
  C         8.0806901362        4.5680853789       10.9551188004
  C         9.4257141062        4.9277801823        7.7269190237
  C         9.9606265033        2.9966937827        6.6602701516
  H         9.8847194700        1.9480704232       10.8035645196
  H        10.5617872476        1.2468688232        9.4784838786
  C        11.4365524198        3.2810964766       10.1053156126
  S         8.6189682299        6.8826796032        9.6848060939
  C         8.0923837512        5.9338841583       11.0905992424
  H         7.8857905968        3.7987217810       11.6373204868
  C         9.7516027951        5.5645325536        6.5758300576
  H        10.1241485397        1.9299006562        6.5130434326
  C        10.3527185966        3.6916374948        5.5232190593
  H        11.0288149294        4.3175340808       10.2945928281
  H        12.0137393691        3.4657434029        9.1362785500
  C        12.5276662402        2.9232770487       11.2129925917
  C         7.6973549767        6.5565053569       12.4052470062
  C        10.2314651980        5.0173689045        5.4192224806
  H         9.5641334705        6.5930544221        6.7100819986
  C        10.7981852790        3.3128143189        4.2904294654
  H        13.4738423628        3.5167382487       11.1081354867
  H        12.8157377465        1.8911612730       11.2090560792
  C        11.9135252894        3.3177084021       12.6000101289
  C         7.7598639076        7.9712392977       12.6757647025
  C         7.2848132146        5.6554763064       13.5546712574
  C        10.6642574241        5.7529531045        4.2311659236
  C        10.9596567682        4.4421534348        3.4736128599
  S        11.2016533408        1.8026869514        3.5414014718
  H        12.3569319366        4.2982905312       12.9616186846
  H        10.8386231402        3.6542268800       12.4670179260
  C        11.8518667326        2.1738894810       13.6251469477
  N         7.8619919514        8.9737726097       11.7325557712
  C         7.2936715827        8.4995255651       13.8654906666
  C         6.9397594453        6.2448786817       14.7304780430
  H         7.1098588119        4.6034067928       13.5021529294
  C        11.9233192478        6.6486076443        4.4515086426
  C         9.3403311429        6.4212308218        3.5674836650
  C        11.3445433823        4.0675763606        2.1703451467
  C        11.5183989464        2.7307360613        2.0988935748
  H        12.4904687603        1.3073917341       13.3327669543
  H        10.8320508261        1.8889404593       13.6330766318
  C        12.3326585638        2.6448664523       14.9075575695
  S         7.9556588506       10.4399134471       12.4657616234
  N         7.4825759413        9.8482975408       13.9639864115
  C         7.0376877914        7.7449019389       15.0000896785
  H         6.6895574414        5.5542859415       15.4797634023
  H        11.7499805718        7.3445031031        5.3036206405
  H        12.0699805096        7.3009519462        3.6330097554
  C        13.1972435478        5.8504399897        4.7384555725
  H         8.8260488224        6.9947897740        4.2748921327
  H         9.7015019780        7.0744693353        2.7655138154
  C         8.2715936249        5.4827268146        2.9707077935
  H        11.3825839861        4.8522487686        1.3923286177
  C        11.9707703030        1.9777515924        0.8647235345
  H        13.4187500578        2.8668698312       14.8313459467
  H        11.9251215869        3.6178650443       15.2331348315
  C        12.1050726249        1.5954208826       15.9298527021
  C         6.8224712080        8.3071720951       16.2875453534
  H        12.9822411853        5.2862989407        5.6399068504
  H        13.4438782872        5.2029341483        3.9055517361
  C        14.4035771653        6.7630249864        4.9498739292
  H         7.9816407818        4.7273652721        3.7087272855
  H         8.6662550598        4.9244521900        2.1548493592
  C         6.9963211480        6.1860989338        2.5808332054
  C        11.9945422492        0.5183388933        0.7780200706
  C        12.2092454249        2.7801769868       -0.3399234133
  H        12.5325620157        0.6520142136       15.6737432625
  H        11.0441528180        1.4809578501       16.1474550126
  C        12.6481892717        2.1411342267       17.2704439781
  H         6.8535410535        9.3632553376       16.1950847710
  C         6.4638831304        7.8538449187       17.5461129661
  H        14.1523440078        7.3667949950        5.7959052076
  H        14.5097352309        7.3603005379        4.1020232358
  C        15.6858422792        6.0554338135        5.2759848617
  H         6.7006216331        6.7742907317        3.4694220516
  H         7.1274028656        6.8501396125        1.7776218996
  C         5.9397885066        5.2796353620        2.2812249180
  N        11.6365479108       -0.4233822068        1.7642454670
  C        12.3122698574       -0.0427324229       -0.4120578467
  C        12.4339058838        2.1365966988       -1.5449191090
  H        12.2994088693        3.9039652482       -0.2376820937
  H        12.5090775901        3.2052446185       17.3937728096
  H        13.7179690221        1.9678962026       17.3594330789
  H        12.0253301816        1.6476383842       18.0857475203
  S         6.3178346012        6.2200464081       18.0211114956
  C         6.1702996510        8.8540066676       18.5739878593
  H        15.5021275638        5.0212647754        5.4567359031
  H        16.3764580960        6.0531926158        4.4398043042
  C        16.3498693333        6.6001555159        6.5553811024
  H         5.3132160692        5.2550234879        3.1757536327
  H         6.3480133817        4.2929713560        2.0870111082
  C         4.8649775927        5.5805789620        1.1910011440
  S        11.8483480634       -1.8928625387        1.1434478961
  N        12.3542297727       -1.4576171163       -0.3875957131
  C        12.4872657783        0.6715840125       -1.6131885784
  H        12.5822492323        2.6955172488       -2.5185546735
  C         5.9701113608        6.8860525831       19.6043322123
  N         5.9395300836        8.2586150695       19.7175555645
  O         6.2635442718       10.0603201221       18.3133072175
  H        17.0390756030        7.2767878899        6.0963415446
  H        15.7057530974        7.2294263731        7.2247755158
  C        17.3297465148        5.6384204488        7.3585168500
  H         5.3009492693        5.5249349380        0.1766585940
  H         4.1230763588        4.7698762720        1.1934172244
  C         4.2084896859        6.9059775857        1.4474432784
  C        12.6891228686       -0.1505123948       -2.8034656136
  S         5.5004478509        5.8851780737       21.0257848637
  C         5.7896753347        8.9513383490       20.9529691294
  H        17.0363686444        5.7341288877        8.4210843254
  H        17.1770167459        4.5785743230        7.0273256778
  C        18.7778913003        6.0650045185        7.1499559023
  H         4.4490592145        7.3262021627        2.4465589424
  H         3.1339585130        6.7314268610        1.3726788973
  C         4.6291030442        7.9798768202        0.4440466075
  H        12.3377146218       -1.1443409104       -2.7465614529
  C        13.3129246810        0.0697069324       -3.9826275370
  H         5.3461148799        8.4138722460       21.8524233254
  H         5.2554544977        9.8507040095       20.8157922841
  C         7.1862593173        9.4329979711       21.3968385647
  H        19.3354628623        5.4789334402        7.8361852031
  H        18.9077170564        7.1351690232        7.2707472019
  C        19.3203372162        5.7326148811        5.7995738528
  H         5.6514892869        8.1202166020        0.4372567108
  H         4.3403229457        7.6126027792       -0.5041600264
  C         3.8488860129        9.2296494833        0.6286879177
  S        13.8260631851        1.6371430325       -4.5159516304
  C        13.3923497796       -1.0806213224       -4.9629318489
  H         8.0014790247        8.6863648361       21.1819474546
  H         7.1955121468        9.6307013219       22.5073936767
  H         7.5346239395       10.3232178091       20.9308800739
  H        19.7618823822        4.7689507010        5.7755997978
  H        18.5236365976        5.5972905299        5.0013610246
  H        20.1496957570        6.3309697752        5.4459453479
  H         4.1954233684        9.6708937869        1.5053421127
  H         4.0432818282        9.8826864765       -0.2595931456
  H         2.7311758361        9.0199108572        0.7054916818
  C        14.1059523160        0.8101452460       -6.0506314628
  N        13.9486514710       -0.5508308035       -6.0697827890
  O        12.9786637791       -2.1685300689       -4.7623639086
  S        15.1522660981        1.5947403783       -7.1755137402
  C        14.1575126694       -1.3564771869       -7.2417374176
  H        14.5016489385       -2.3206205635       -7.0338867890
  H        14.9793674155       -0.8982653760       -7.8304845367
  C        13.0134398327       -1.3075955691       -8.1704191977
  H        12.1527345263       -1.7447566583       -7.7255982645
  H        13.2898897015       -1.8843285130       -9.0135482183
  H        12.7920401055       -0.2629435392       -8.3790718700
  H        -0.8695473342       13.5393285601       15.7269074592
  C        -1.7854205858       14.0747469307       15.6446132790
  H        -1.6628163532       14.9191494419       14.9568483364
  C        -2.0494775428       14.4044481205       17.1058258056
  C        -2.8054642096       13.1107945006       15.0325577357
  C        -2.1284715065       13.1485255602       17.9678132864
  H        -1.2250166710       15.0463066888       17.5374181515
  H        -2.9538450064       15.0084950382       17.1015893173
  H        -2.4732019523       12.1054533904       15.1456416874
  H        -3.7911646642       13.2238730617       15.4333364004
  H        -2.8384621660       13.3242342099       13.9628683862
  C        -1.4230289188       13.2190456713       19.3310075587
  H        -1.6661765343       12.2306567114       17.5303671151
  H        -3.1659056772       13.0040960655       18.1490912053
  C        -2.3580517040       13.1543917634       20.5846516478
  H        -0.7659940459       12.4162668717       19.2704777950
  H        -0.7322916183       14.0847523779       19.2588340226
  C        -1.4877577688       12.5999659791       21.7245947061
  H        -3.2856308323       12.6527980791       20.2719165367
  H        -2.7237345690       14.1538610930       20.9467116170
  C        -0.4131184170       13.6465704181       22.2185446990
  H        -2.1992308660       12.2840241966       22.5678685803
  H        -1.0517431576       11.6699246317       21.2665439900
  C         0.7613341157       12.9832717765       23.0202003705
  H         0.0663476587       14.1763832427       21.3004932495
  H        -0.8180881782       14.3280806881       22.9298175287
  C         1.3533944000       11.7129469721       22.3165640436
  C         0.3563287361       12.1971530924       24.2952326075
  C         1.9554521691       13.9709280840       23.1862097801
  C         1.1706145626       10.5722639187       23.1227760528
  C         1.9436568351       11.4636815037       21.0746734786
  C         0.6165796749       10.8786779533       24.3439853372
  C        -0.1016433457       12.7249392070       25.5033665080
  H         2.1906025629       14.3233846581       22.1933873741
  H         1.5730658665       14.8024588685       23.8785048524
  C         3.1397087086       13.3174356993       23.7492500737
  S         1.6680745960        9.1295085700       22.2781319892
  C         2.1080035712       10.0938002773       20.9012293558
  H         2.1783311180       12.2392333916       20.3625929728
  C         0.2403344866       10.1729142646       25.5169582334
  H        -0.2206857424       13.7912236634       25.4995032973
  C        -0.3591694172       12.1023330756       26.6557209311
  H         3.6335030286       12.6293386395       23.0617836961
  H         2.9201327689       12.6355718190       24.5481538565
  C         4.2026604251       14.2936719529       24.1534068053
  C         2.7275230599        9.5451973346       19.6283065206
  C        -0.1869738062       10.7470341426       26.7255336519
  H         0.5280423101        9.1306834677       25.4791975348
  C        -0.7299304737       12.4717217286       27.9696549915
  H         4.9236213318       13.7776648827       24.8109640415
  H         3.7242948903       15.0955435399       24.7253423313
  C         4.8365819914       15.0872119156       22.9095192486
  C         2.7181658894        8.1433742088       19.3848453844
  C         3.0283164728       10.3113432103       18.3954191164
  C        -0.4883923613       10.0080279697       28.0116704398
  C        -0.9324945310       11.3287448052       28.6939718935
  S        -0.9112708776       13.9363842495       28.7617834414
  H         5.4198109005       15.9008242613       23.3255865605
  H         4.0688657347       15.5117223258       22.2723963113
  C         5.7278559438       14.2655326417       22.0498220494
  N         2.2987397094        7.0982024766       20.2418581735
  C         2.8635836558        7.5977377674       18.0717048940
  C         3.3066583826        9.8361986793       17.1184431901
  H         3.1923815045       11.3799830209       18.5668852134
  C         0.7231601319        9.3507134813       28.6082902667
  C        -1.7130302918        9.0965797950       27.8086435026
  C        -1.3411639818       11.6683148268       30.0115461580
  C        -1.2303064467       13.0426517564       30.2143399259
  H         6.5785714869       14.9322119875       21.7125441050
  H         6.1193003173       13.3872883558       22.6145253439
  C         5.0634484837       13.7944404231       20.7266581532
  S         2.1513283683        5.6700183692       19.4276767348
  N         2.8294796872        6.2221005609       18.0315427437
  C         3.2522623397        8.4122385904       16.9310882658
  H         3.6273178515       10.5497620844       16.3381055050
  H         1.3604207606        8.9025023692       27.8436011044
  H         0.4730309212        8.5426068032       29.3217582491
  C         1.6056729955       10.3127857930       29.4185214102
  H        -1.3892297429        8.4101986952       27.0514487980
  H        -1.9481962654        8.5607512215       28.7500868467
  C        -3.0150209622        9.7554793660       27.3654595519
  H        -1.5667563986       10.8812339241       30.7186377024
  C        -1.3620840922       13.7888534433       31.5262880538
  H         4.9246768544       14.5894121279       20.0135064203
  H         4.1093561218       13.3429041209       21.0260063475
  C         5.8968025399       12.7604043156       20.0410309115
  C         3.3408486038        7.6522014711       15.7460361868
  H         1.6225877388       11.2475586724       28.8507113238
  H         0.9610806890       10.5770712276       30.2860756561
  C         2.9586890872        9.7309976172       29.8849497375
  H        -2.8966886464       10.3450180940       26.4957286571
  H        -3.2666722522       10.4945368010       28.1548202132
  C        -4.1409167154        8.7355601542       27.1380011356
  C        -1.4137244233       15.1981429507       31.6753714974
  C        -1.4686227142       12.9823194903       32.7483554784
  H         6.1028716739       11.9745473753       20.7771490001
  H         5.3441510444       12.2699913917       19.2024222507
  C         7.2201489153       13.3806834545       19.5570542543
  H         3.2374956294        6.5726746157       15.8142313248
  C         3.6628349379        7.9606366236       14.4435266487
  H         3.2180628303        9.0796516842       29.0473248432
  H         2.8141602559        9.1034588238       30.7845979837
  C         4.0987194844       10.7815814245       30.0517848367
  H        -3.8594487724        8.0550078698       26.3974506424
  H        -4.3371664705        8.1689110874       28.0557446608
  C        -5.4620029528        9.4612291274       26.6432932168
  N        -1.1291933056       16.1488379354       30.6447701385
  C        -1.6294008423       15.7793095320       32.9006320934
  C        -1.7049583653       13.5897914103       34.0001036289
  H        -1.4099335458       11.9679179374       32.6519499584
  H         7.8714663508       13.4162642025       20.3184912190
  H         7.7734326533       12.7380677182       18.8677728741
  H         7.1823004865       14.4349676804       19.2415647870
  S         3.9686368724        9.5714211377       13.8811317480
  C         3.8439553573        6.8585890772       13.4644898795
  H         4.0357407796       11.5545225021       29.3228397787
  H         4.0213617328       11.3782552410       30.9613489698
  C         5.4795845624       10.1896336981       29.9805723982
  H        -5.6259075790       10.2272132421       27.3654472208
  H        -6.2550991615        8.7808493398       26.7192830865
  C        -5.4553943891       10.0349467417       25.2400787661
  S        -1.1580103385       17.6853714844       31.3264437597
  N        -1.7123553578       17.2303683553       32.8017186795
  C        -1.8943277724       15.0377365873       34.0809793087
  H        -1.8227349450       12.9446620540       34.8566256399
  C         4.2202824295        8.7949231090       12.3600687168
  N         4.2978877757        7.4373941661       12.3368116288
  O         3.5365458448        5.6631277360       13.6248396008
  H         6.1706182631       11.0339852251       30.1988713418
  H         5.5997105776        9.8974477239       28.9309764896
  C         5.8217360919        9.1069262823       31.0441012832
  H        -4.6062924458       10.5622455242       25.0391234813
  H        -5.4842427434        9.1679459326       24.6518151673
  C        -6.7900296449       10.8340095315       24.9078707603
  C        -2.3131134280       15.8096069774       35.2087610075
  S         4.5921405633        9.6397932188       10.8772596046
  C         4.3843612736        6.6474664306       11.0915206090
  H         6.6786488386        9.3526008954       31.6095230609
  H         4.9555774169        9.1641417675       31.7142453637
  C         5.9630580355        7.6505397317       30.6211000678
  H        -6.5982592520       11.3470077257       23.9250191784
  H        -6.8431272143       11.6007680326       25.6213542459
  C        -8.1120363129       10.0417017659       24.9740334586
  H        -2.2617444943       16.8352081504       35.0916760065
  C        -2.8663433965       15.3890979215       36.3756633537
  H         5.3444074727        6.8491362271       10.6171771677
  H         4.4841310489        5.6386486766       11.4011974999
  C         3.0169405574        6.5131240736       10.2687837909
  H         6.7506795888        7.4891774990       29.8468547539
  H         4.9440160903        7.2922058196       30.2706177938
  C         6.2782476623        6.6316989094       31.7286550926
  H        -8.5602813612        9.9575406168       24.0069821732
  H        -8.0259793026        9.0325712137       25.3090677699
  C        -8.9862552857       10.6934749683       26.0712378410
  S        -3.4669300064       13.8136078841       36.8098326600
  C        -2.9609179386       16.4004330489       37.4233758820
  H         3.0849528089        5.8483917794        9.4281874615
  H         2.1935165004        6.2947119641       10.8623756911
  H         2.6576049361        7.3583931947        9.7908780451
  H         7.3144790518        6.4665862266       31.9254715740
  H         5.8296163767        5.6628402814       31.3688158645
  H         6.0722284688        7.0317093752       32.7131863360
  H        -9.9148673349       10.2437574105       26.2137599880
  H        -9.0935027757       11.7452620816       25.9469905272
  H        -8.5221996806       10.4858234196       27.0539322360
  C        -3.9047740428       14.6264970955       38.3180097430
  N        -3.5851050988       15.9094567375       38.4782715663
  O        -2.4780484143       17.5127818924       37.2856116890
  S        -4.5636769260       13.8932702633       39.7943365920
  C        -3.6013082634       16.6391240845       39.7756843021
  H        -3.6688150155       17.7154858897       39.6460915058
  H        -4.4944458586       16.3856062756       40.3520643018
  C        -2.3978644022       16.3800189681       40.5493525409
  H        -2.4696575759       17.0198073679       41.4763220395
  H        -2.4108100449       15.3192708102       40.8828020348
  H        -1.4900950030       16.5691017743       40.0261585636
