352
i=
  H         4.3264108815        1.5196458045       13.1914638039
  C         3.8281669230        2.4520366048       13.1289542769
  H         4.5736927682        3.1966188048       13.0387729468
  C         3.0619417032        2.4331266870       11.8524906052
  C         3.0506194937        2.5692131888       14.4011585608
  C         3.9021714741        2.6673372880       10.5507752640
  H         2.1796429546        3.0779116094       11.8441967775
  H         2.6783245378        1.4001743651       11.6571007865
  H         3.6438676089        1.8908956738       15.0351973912
  H         2.0774157323        2.1183299770       14.3591027514
  H         2.9605886243        3.5696660639       14.7865076138
  C         4.9000872003        1.4869331402       10.2743987832
  H         3.2055619052        2.9018255935        9.7607714341
  H         4.4190965444        3.6572795163       10.7049838895
  C         5.7278101562        1.7504230138        9.0762787252
  H         4.3881305838        0.4990253202       10.0813965222
  H         5.5985342746        1.2384649843       11.1711060132
  C         6.8593688489        2.7388809654        9.1833348931
  H         5.0798862609        2.2171695106        8.3734633768
  H         5.9542778495        0.8032300300        8.6622222590
  C         8.1680145645        2.1771855519        9.7567584946
  H         7.0114276474        3.2270604735        8.2139024117
  H         6.4035864572        3.5666216133        9.7831552050
  C         9.4178747704        3.0652477283        9.7612243562
  H         8.2931564851        1.2675809308        9.2321770200
  H         7.9820830997        1.7704398555       10.7341388394
  C         9.1322629781        4.3974778791       10.4227096852
  C         9.8783574800        3.7684398401        8.4503530350
  C        10.5978095208        2.2854014638       10.4200372422
  C         9.3644162199        5.4892184576        9.5543336804
  C         8.5144522397        4.7634369707       11.6427553020
  C         9.8692828124        5.1177579418        8.3441050166
  C        10.3397200642        3.0997486680        7.3244860834
  H        10.1929025548        1.6945387088       11.1957223169
  H        11.0437400391        1.5582776547        9.7324248086
  C        11.6681807427        3.2760856690       10.8300577427
  S         8.8212573570        6.9462378486       10.2877623269
  C         8.3772448765        6.0978565546       11.7437763223
  H         8.2485220808        3.9740981017       12.3668350368
  C        10.1962881374        5.6733244057        7.1240705175
  H        10.2193482828        2.0849596729        7.5249840556
  C        10.7040560875        3.6636592830        6.1185972784
  H        11.3267474890        3.9386874685       11.6030401825
  H        11.8486659183        3.9892785929       10.0598125908
  C        12.9805986492        2.6452319092       11.3434605672
  C         7.8429618407        6.8158511389       12.9775465465
  C        10.6913887975        4.9884525663        5.9772205207
  H        10.1322040602        6.7486285818        7.1511025051
  C        11.1402299837        3.1447159182        4.9181353487
  H        13.6973156744        3.4467731217       11.4219574854
  H        13.3546126487        1.9043207766       10.6038156949
  C        12.8514704271        2.0031483193       12.6784159403
  C         7.9004690305        8.1530391367       13.2101699968
  C         7.3218909316        5.9715740504       14.0742793132
  C        11.1033847463        5.5782153027        4.6437264449
  C        11.3387355589        4.1940310073        4.0275646997
  S        11.4544308188        1.6037556290        4.1622297035
  H        11.8076365768        1.7150172316       12.7665862278
  H        13.4782265985        1.1428491095       12.7066552307
  C        13.3321674839        2.9182981935       13.7918069834
  N         8.1519055526        9.1504239165       12.3140270473
  C         7.6402927967        8.6315653749       14.4669926418
  C         7.1218590098        6.3989905605       15.3614642865
  H         7.1407583612        4.9410778704       13.8376005726
  C        12.4513283761        6.3636424064        4.7434937620
  C        10.1179885942        6.3559514496        3.7762378013
  C        11.7195629905        3.7088516304        2.7456095963
  C        11.8255185001        2.3741270489        2.7056780276
  H        13.8160567055        3.8694199171       13.5438663095
  H        14.0577925446        2.2946249981       14.2783147987
  C        12.2684393493        3.0589443812       14.8898894588
  S         8.2613763811       10.5947324133       13.0571666828
  N         7.8993219264        9.9878615827       14.5159378904
  C         7.2541993204        7.8568678980       15.5977010552
  H         6.7418617798        5.6087686797       15.9797035570
  H        12.2236744239        7.3676885120        5.2641347461
  H        12.7777211086        6.6713153546        3.7423706289
  C        13.4469895876        5.6459231640        5.6857777662
  H        10.1352007397        7.4092751770        4.0979866103
  H        10.4060734043        6.2473264664        2.7094715843
  C         8.6875066740        5.7871655705        3.7824293809
  H        11.7849064977        4.3771385346        1.9355244609
  C        12.0654917048        1.5661549277        1.4450725725
  H        12.2881520583        4.0938394232       15.3358212871
  H        11.2308950229        2.8917851998       14.5400732278
  C        12.3435084374        2.0767051539       16.0829581514
  C         6.9056145064        8.4721461550       16.8180440409
  H        13.1214983929        5.5423769968        6.7428538855
  H        13.7153636327        4.6669336716        5.2146756567
  C        14.7934450210        6.3826816946        5.7552184195
  H         8.2851859610        5.9437696298        4.7608016054
  H         8.7203186718        4.6882254067        3.7180175074
  C         7.7723735930        6.3468203433        2.6581807416
  C        12.1306602844        0.1943615239        1.2535792878
  C        12.3879415441        2.3702271139        0.2128227366
  H        12.6472851455        1.1361106877       15.6649648912
  H        11.3057432423        1.9459337615       16.5670090007
  C        13.2519498923        2.4818123813       17.2769296268
  H         7.0744875478        9.5421106206       16.8553425943
  C         6.6449800573        8.1085821634       18.0967289335
  H        14.7681852448        7.3733813946        6.1766679698
  H        15.0715333587        6.4848032890        4.7248540840
  C        15.8764487511        5.6527945317        6.5349182663
  H         8.0803108085        7.4067656149        2.5689723815
  H         7.9235354034        5.8700630831        1.7239991580
  C         6.2851769510        6.0502259879        2.9455464239
  N        11.9172300784       -0.7827311895        2.2829100892
  C        12.3200328442       -0.4484578855        0.0664640961
  C        12.5868515709        1.7654402651       -1.0337569080
  H        12.3606566239        3.4330913436        0.2442309445
  H        12.7070941488        3.2309373510       17.9084189475
  H        14.1326466659        2.9954978903       16.8875130441
  H        13.5010387761        1.6341093232       17.8920516011
  S         6.5145547807        6.4447157388       18.5717547514
  C         6.4440819509        9.0838627849       19.1917459110
  H        16.3253783424        6.1472466882        7.2982473240
  H        15.4664209781        4.7740532032        6.9789674476
  C        17.0938024465        5.2851654018        5.7021898335
  H         6.1883077176        5.3215979579        3.8221420900
  H         5.9497760708        5.4469993834        2.0892749947
  C         5.5566351853        7.3185308276        3.2384720547
  S        11.8142461922       -2.2749066931        1.6576628373
  N        12.1648633173       -1.8336592393        0.1296144857
  C        12.5430545085        0.2614592564       -1.1441124697
  H        12.9386393330        2.4755163201       -1.7791018428
  C         6.0430435619        7.0564597718       20.1346914657
  N         5.9888443139        8.4227270517       20.2351003395
  O         6.6184119385       10.2985469617       19.1307179040
  H        16.7020207704        4.6015577579        4.9233905533
  H        17.5366119516        6.0671436747        5.1111115422
  C        18.2898710483        4.5749125360        6.5239733054
  H         4.4802231750        7.0462119313        3.3659584232
  H         5.9166282278        7.7760140661        4.1886276934
  C         5.7510379304        8.3154745313        2.0831227641
  C        12.9464026452       -0.5119121874       -2.2813721315
  S         5.4911606015        6.0568902471       21.4176453167
  C         5.8567035734        9.1359700572       21.5654384972
  H        18.0485566303        3.7737248806        7.1887168566
  H        18.9663274860        4.0710563851        5.8546448850
  C        19.1066787718        5.5273058485        7.4142933864
  H         6.5689691835        8.2440205771        1.3146679832
  H         5.8781580089        9.2311757711        2.6112904996
  C         4.5256150758        8.4574923970        1.1759927999
  H        12.8310842237       -1.5625328785       -2.1703047609
  C        13.4088090278       -0.2007217659       -3.5223851800
  H         5.1482073601        8.6840807635       22.2313710182
  H         5.5474455225       10.2022128671       21.5806252222
  C         7.2508267141        9.1456819162       22.1989865254
  H        19.4619752099        4.9900418787        8.2666507099
  H        18.4798487743        6.3167255263        7.8831312653
  C        20.3593167639        6.0432200561        6.7432151297
  H         4.7474047513        8.2396621429        0.1910759938
  H         3.6805713767        7.8307132847        1.4038442233
  C         4.0619375877        9.9450741375        1.1776596732
  S        13.8521766034        1.3453995550       -4.1068441555
  C        13.7408160568       -1.3145485514       -4.4817647627
  H         7.4263990680        8.2316637660       22.8885150342
  H         7.4018661979        9.9690041957       22.8621056451
  H         8.1165347194        9.2585568647       21.5964077731
  H        20.1085886303        6.6256263533        5.8696520952
  H        20.9886509096        6.5247774974        7.4829053833
  H        20.9147741041        5.1991455583        6.3860696909
  H         3.1102492486       10.0170565051        0.6625679401
  H         3.8037995960       10.2717706968        2.1974474125
  H         4.8585641217       10.4928651249        0.7397470870
  C        14.2825902200        0.5408496352       -5.5965206919
  N        14.2932759106       -0.8145993751       -5.6242314128
  O        13.7186360739       -2.5051195862       -4.1486622888
  S        14.9982203413        1.3996252932       -6.9809549659
  C        14.4917080272       -1.6002266792       -6.8375668195
  H        14.7230518483       -2.6429155046       -6.6497768782
  H        15.3034589885       -1.2159539544       -7.4775533822
  C        13.2483041824       -1.5172204860       -7.7603607518
  H        13.2999156252       -0.6533776131       -8.4644140994
  H        12.2805094032       -1.4502070203       -7.2429515529
  H        13.1525063411       -2.4323948311       -8.2547108424
  H        -3.3025515140       14.8662771154       16.6794178450
  C        -3.0171152474       13.8909002421       16.5202860221
  H        -4.0197973400       13.4066694593       16.7421106741
  C        -1.9501908268       13.4230077867       17.5470184170
  C        -2.6134936548       13.4954698568       15.0501083971
  C        -2.0141184398       14.1311649864       18.8438332818
  H        -1.9987457300       12.3110049455       17.6175752807
  H        -0.9944306042       13.5942120488       17.0934835115
  H        -2.1116268722       14.2817237662       14.5331764747
  H        -1.8914986755       12.6861910789       15.1661962977
  H        -3.3748896839       13.0798672246       14.4279539852
  C        -2.0047051874       13.1049241030       19.9280326668
  H        -2.9194881253       14.7234537644       18.9504492311
  H        -1.2686507610       14.8687929294       18.9658288566
  C        -2.3846091880       13.6804825711       21.2741256312
  H        -2.7928360693       12.4237179000       19.6942707247
  H        -1.0989235394       12.6099506395       19.9377644096
  C        -1.4057996194       13.1660585295       22.3669292910
  H        -3.3743199338       13.2682441768       21.5486085704
  H        -2.4066436697       14.7594898165       21.1816321187
  C        -0.0582503942       13.9114502902       22.4998744184
  H        -1.9272363096       13.2679706787       23.3582450274
  H        -1.3678149106       12.1184198707       22.1228138967
  C         1.0379198926       13.0773363030       23.2110414395
  H         0.3217693121       14.2022593943       21.5765545884
  H        -0.1732958100       14.8975183357       22.9418961591
  C         1.3157627188       11.7420674166       22.5663860689
  C         0.6880804038       12.3356895475       24.5003885157
  C         2.4283649701       13.8207830046       23.3308757509
  C         1.1355682132       10.5992152961       23.3590656794
  C         1.7712186260       11.3869953247       21.2756365001
  C         0.7906721837       10.9915126865       24.6280970723
  C         0.3185366368       13.0320295235       25.6394792585
  H         2.7568395833       14.3159334132       22.4384696045
  H         2.2476477273       14.6412345458       24.0187510811
  C         3.6522144571       13.0945230906       23.8207785206
  S         1.5809039966        9.1601106109       22.6313646508
  C         2.0033251843       10.0349637900       21.1574068161
  H         1.8982182164       12.2159637058       20.5581870760
  C         0.4483529914       10.3966393289       25.7998540712
  H         0.4760046478       14.0921340370       25.6230705689
  C         0.0313688672       12.4295313349       26.8258014730
  H         4.0112757670       12.4624957024       23.0182499632
  H         3.3954900163       12.5338253160       24.7144852047
  C         4.8451072563       14.0828233633       24.1486972250
  C         2.5337506478        9.2745502735       19.9575521545
  C         0.0381607858       11.0454166092       26.9680851290
  H         0.6029021432        9.3103100138       25.9595641400
  C        -0.3996831043       12.9031603953       28.0736474681
  H         5.6366865719       13.6689488050       24.7760541412
  H         4.3107941773       14.7606080669       24.8595326902
  C         5.6356862195       14.9139417200       23.0543187692
  C         2.5791003520        7.9206308834       19.7328437087
  C         3.0034845874       10.1427432660       18.8828483621
  C        -0.4453103449       10.3828894282       28.2351797578
  C        -0.7082438594       11.8357162241       28.8713217507
  S        -0.7033009643       14.4818716845       28.7164516156
  H         6.0903813975       15.7878294705       23.6038550265
  H         4.9908950288       15.4029705443       22.3210798542
  C         6.7560807638       14.0085570207       22.3963921569
  N         2.1777863240        6.9377751215       20.5804997202
  C         3.0423768886        7.3343681937       18.5158965145
  C         3.3337979612        9.5442267983       17.6779403639
  H         3.0571951271       11.1589503553       19.0220852380
  C         0.6557419378        9.6298033165       29.0017783358
  C        -1.7696534351        9.6409557801       27.9439169742
  C        -1.2081057475       12.2845006238       30.0867985415
  C        -1.2193457215       13.6887107364       30.1941746103
  H         7.6339613039       14.6465405637       22.3688813766
  H         6.9450451560       13.0985065507       22.9570510144
  C         6.4669074074       13.6505800634       20.9685884289
  S         2.3846502930        5.4362375328       19.9233593635
  N         3.0682763656        5.9085128905       18.5919396722
  C         3.3262227854        8.1176823913       17.3984800886
  H         3.5762987466       10.2864624636       16.9309923269
  H         1.1303956592        8.8329219553       28.4463016587
  H         0.1584905470        9.0842123152       29.8379932025
  C         1.7279406207       10.5537208390       29.5339820777
  H        -1.5883784382        8.7884788779       27.2962332991
  H        -2.1024079745        9.3556326698       28.8713015771
  C        -2.9092625088       10.4751070078       27.4385931436
  H        -1.6911364498       11.6394674380       30.7763170123
  C        -1.6299718579       14.3807406294       31.4155300668
  H         5.7190909597       14.2756172374       20.5063439207
  H         6.0903215758       12.6810626204       21.0346835108
  C         7.7456735632       13.5240926915       20.1335864887
  C         3.6990671561        7.4716019301       16.1816297768
  H         2.0408805422       11.2769185590       28.8493179817
  H         1.2514265961       10.9729200394       30.4162271509
  C         2.9370278878        9.6977004981       30.0386637353
  H        -2.5577599265       10.8646205987       26.4435137220
  H        -3.2214979065       11.3143535059       28.0359476172
  C        -4.0841325612        9.6113212780       27.2072271569
  C        -1.4509841096       15.8203497136       31.5058766603
  C        -1.7323740144       13.6407224369       32.7224149003
  H         8.5773301295       14.2201276462       20.3359307453
  H         8.2033086668       12.5778310050       20.4028517322
  C         7.4461071442       13.4246379428       18.6132860943
  H         3.5720629525        6.3940081539       16.1409649916
  C         4.0054606622        7.9399157744       14.9435260667
  H         3.4301244832        9.3538054288       29.1966834934
  H         2.6216119558        8.7938294870       30.5960932595
  C         3.8134156499       10.4556129983       31.0249683990
  H        -3.8658610809        8.7901446817       26.4933367340
  H        -4.3401792011        9.2077343188       28.1687026586
  C        -5.1175261436       10.4452317410       26.5441557722
  N        -1.2135239953       16.6786828944       30.4330841076
  C        -1.7023014507       16.4605142665       32.7074888435
  C        -1.9816175036       14.3778402840       33.8806978398
  H        -1.8571824507       12.6009226729       32.7445920791
  H         6.3871046075       13.8814226713       18.4429522307
  H         8.1728343957       14.0125801063       18.0797194588
  H         7.6023844834       12.4280374493       18.1793782868
  S         4.2432436994        9.5802519990       14.4958650923
  C         4.0141393970        6.9815021886       13.7985343130
  H         3.8610825314       11.5175051994       30.7105496911
  H         3.3567022904       10.3253506274       32.0219208929
  C         5.1959844655        9.8569870175       30.9049344613
  H        -4.7509350336       10.8705396118       25.6129966930
  H        -5.2992446238       11.3619184970       27.1622568446
  C        -6.3335737569        9.6818402659       26.1553003939
  S        -1.1791099177       18.1691560655       31.0495302550
  N        -1.6661311870       17.8093134161       32.5200370217
  C        -2.1642315170       15.8412432312       33.8549357560
  H        -2.1679488047       13.8586047354       34.7425505490
  C         4.5397189732        8.9626645647       12.9011369392
  N         4.4272405084        7.6219553857       12.6803510444
  O         3.9809537120        5.7372967495       13.9650370877
  H         5.9161145927       10.4682934026       31.3440117856
  H         5.5037095593        9.8709480900       29.8223939681
  C         5.2809196597        8.5242945701       31.6264621184
  H        -6.1056855060        8.9512321847       25.4273183994
  H        -6.6673502132        9.1958097773       27.0125672455
  C        -7.3310960287       10.5996126351       25.6271389456
  C        -2.4626993304       16.6669594371       35.0277307588
  S         4.9980842157        9.9430376341       11.4990520730
  C         4.5634206119        6.8886292220       11.4303531807
  H         6.2373575903        8.4993512952       32.2309713127
  H         4.4550253095        8.3860478648       32.3445191067
  C         5.3847135621        7.3409703052       30.6973069948
  H        -6.8264599645       11.2541559709       24.8351957568
  H        -7.7073830233       11.3510077380       26.3307402747
  C        -8.5163849996        9.8899957008       24.8882685373
  H        -2.0828444318       17.6472131215       34.9033715381
  C        -3.0218558879       16.3651209707       36.2151997472
  H         5.3031622214        7.3858322150       10.7150969457
  H         4.9061635516        5.8568042661       11.6415793008
  C         3.1987172196        6.8097604308       10.7918869778
  H         4.7863752317        7.5584721019       29.8757069552
  H         4.8257139088        6.5185824659       31.1710201740
  C         6.8525978064        7.0276167352       30.4048662557
  H        -8.6785815168       10.3821121663       23.8908009131
  H        -8.3293677215        8.8414555665       24.6834068170
  C        -9.7837033855       10.0318860833       25.7240742998
  S        -3.6412478078       14.8344778461       36.7518240732
  C        -2.9724120807       17.3684542726       37.2684561381
  H         3.1605866949        6.4145113724        9.7421845178
  H         2.6605666728        6.1134349888       11.4746150506
  H         2.6456785915        7.7581081526       10.8441987789
  H         7.5020735819        7.8080763945       30.6550242697
  H         6.9515518613        6.8807966242       29.3767822632
  H         7.3381608989        6.0725848803       30.7795793955
  H       -10.0202777779       11.0697593396       25.9224422417
  H        -9.6100186498        9.4788481817       26.6901459852
  H       -10.5677446312        9.5275755825       25.1951136101
  C        -3.7834469398       15.6364825530       38.3180185380
  N        -3.5008299433       16.9559238344       38.3557040162
  O        -2.5039226730       18.5215242360       37.0752522894
  S        -4.3355780619       14.9269931401       39.8038951839
  C        -3.6956042048       17.8587944449       39.4779687828
  H        -3.6855791929       18.8577142955       39.0800001919
  H        -4.5608298014       17.7455959049       40.1538661907
  C        -2.5278103192       17.6604098354       40.4194114962
  H        -2.6062822770       18.2434362098       41.3355843117
  H        -2.2210753901       16.6612880920       40.7659828242
  H        -1.6166326758       17.9894492431       39.9649701468
