352
i=
  H         2.3102225301        3.6540708937       11.7890806140
  C         2.8631403031        2.7976361972       12.0774533197
  H         2.2871989282        1.9283045873       11.7354356156
  C         4.2227340875        2.9443027052       11.4356094867
  C         2.8757711328        2.8287416999       13.6225866270
  C         3.9405788326        2.6235511827        9.9834141923
  H         4.9283623793        2.2755958472       11.9581466904
  H         4.5320555965        3.9121232554       11.7233838663
  H         2.2751505264        3.6827314227       14.0299513058
  H         3.9013991234        2.7284198191       14.0785460130
  H         2.3824851676        1.9130673394       13.9702474782
  C         4.9006080440        1.6039398754        9.4133873273
  H         2.9152649291        2.2370173453        9.8802777722
  H         3.9051340341        3.5277018310        9.3782082477
  C         5.7066053229        1.9793063368        8.1822243964
  H         4.4432699866        0.7199448144        9.0777413729
  H         5.6247047835        1.3134533814       10.2127081224
  C         6.7611358082        3.0698800223        8.4873444608
  H         5.0296463622        2.4917298598        7.4498672787
  H         6.0081315588        1.0778623697        7.5922411258
  C         7.9737440655        2.3861919336        9.1047712825
  H         7.0746537950        3.6170929988        7.6535269052
  H         6.3603912598        3.8844501276        9.0895532569
  C         9.1166597435        3.3373287315        9.3745653895
  H         8.3051447354        1.5669836887        8.4247821217
  H         7.6034251053        1.8916479577        9.9643187931
  C         8.7615937712        4.7125635371       10.0160823220
  C         9.6515950292        4.0044810614        8.1509401149
  C        10.2281380395        2.6839555795       10.2890576078
  C         9.1331846109        5.7567227501        9.2359250631
  C         8.0619480043        5.2433114299       11.1594813623
  C         9.6601813214        5.2964240688        8.0406621178
  C        10.0893691917        3.3041217743        7.0197728320
  H         9.6969371090        2.4918453771       11.2528961522
  H        10.4887465292        1.7673742999        9.8786999072
  C        11.4257918622        3.4976098553       10.5331314177
  S         8.7036315392        7.2854563935        9.8200956511
  C         7.9507050280        6.5635824889       11.1946417933
  H         7.6154599954        4.5775025930       11.8598090366
  C        10.1107791640        5.8602942162        6.8672634919
  H        10.1556332810        2.1872944673        7.1108573954
  C        10.4955690238        3.8024851421        5.8610893617
  H        11.1378741509        4.4595242280       11.0299625229
  H        11.9560171877        3.6537678710        9.5935580211
  C        12.4652041944        2.9307234578       11.5085198235
  C         7.5309805393        7.1904825439       12.4655504375
  C        10.5360641605        5.1589075052        5.7399494214
  H        10.0367463312        6.9169769971        6.7567764552
  C        11.0725669907        3.2970950894        4.6818309562
  H        13.5072279186        3.1738846749       11.3116856954
  H        12.4703779015        1.9186827284       11.4189892978
  C        12.1482392368        3.3047407876       12.9948415535
  C         7.6853174257        8.5772682614       12.7714796972
  C         7.2127480776        6.3745704229       13.6458583511
  C        11.1372888973        5.7058667485        4.4033981480
  C        11.3736700809        4.3672252896        3.8078957842
  S        11.3568920287        1.7789648896        3.9926395578
  H        12.5889929684        4.2848693284       13.2085742078
  H        11.0577467650        3.4767649547       13.1105242159
  C        12.5487691414        2.2699605661       14.0013837908
  N         8.1001445144        9.5733014264       11.8711239200
  C         7.4713070419        9.1186907215       13.9919822710
  C         6.9892623745        6.9063340295       14.8724929549
  H         6.9868390097        5.2963692465       13.5659382247
  C        12.4525738850        6.4956023252        4.7138927684
  C        10.1715082548        6.5547827260        3.4880338992
  C        11.8608022187        3.9329451869        2.5415781889
  C        11.6749847549        2.5945944258        2.4500556165
  H        13.6225395860        2.3436358687       14.3749199070
  H        12.6286508920        1.2826635373       13.5313075778
  C        11.6454723305        2.2662667001       15.2237804466
  S         8.2486904604       11.0292411666       12.6228147908
  N         7.6716209104       10.5377797026       14.0178475856
  C         6.9729191932        8.3900437552       15.1441526178
  H         6.5742475485        6.2136760257       15.6499858161
  H        12.1168202840        7.3390179109        5.2980733725
  H        12.9493523517        6.9440472516        3.8751130557
  C        13.4185211903        5.7828739745        5.6992332793
  H         9.8836720708        7.3827816556        4.0519698210
  H        10.5779157191        6.9505233966        2.5528065588
  C         8.9275944179        5.6757061988        3.1628730455
  H        12.1345434041        4.6060555058        1.7592243467
  C        11.9709805821        1.7920644652        1.2095715324
  H        11.2237198336        3.2619280177       15.2450610259
  H        10.8114424282        1.5093856058       15.1705514231
  C        12.3161539825        1.9960869390       16.6029803515
  C         6.6808361958        9.0619879761       16.3812957414
  H        13.1573796463        5.8382418262        6.7851337754
  H        13.4600384237        4.7268840246        5.5234729308
  C        14.8630117059        6.1802024756        5.4080752215
  H         8.4654509702        5.3047949914        4.0947577286
  H         9.3324363154        4.8473049503        2.5487808537
  C         7.9642786025        6.5803695951        2.3324154884
  C        11.8551113115        0.4106287605        1.0711891037
  C        12.2366973849        2.5566804965       -0.0159933132
  H        12.7500393479        1.0140352870       16.4833421079
  H        11.5966205356        1.9470233773       17.4539273292
  C        13.2734774470        3.1260989570       17.1067543738
  H         6.4974495376       10.0838234683       16.3234804518
  C         6.4690417630        8.6566502626       17.6862888867
  H        15.0178398968        7.2805416196        5.3070000099
  H        15.1946669044        5.8019675849        4.3856509224
  C        15.8405988857        5.9102462795        6.6083060483
  H         7.6622522733        7.4930421095        2.9006924297
  H         8.3502286077        6.9954915706        1.3971050556
  C         6.7645750598        5.7316842573        2.0408434102
  N        11.7299543944       -0.4981229107        2.1745187081
  C        12.1381430644       -0.2527057791       -0.0901700103
  C        12.4254212186        1.8514659079       -1.2195959078
  H        12.4705326529        3.6115968876       -0.0634968632
  H        12.6308385146        3.9142921090       17.4964162484
  H        14.0741933549        3.5188119843       16.5033628632
  H        13.6809038394        2.8282453472       18.0246729576
  S         6.4210288818        7.1213001112       18.1719454065
  C         6.3314499891        9.7056550445       18.7766467327
  H        15.8178328973        6.7959900478        7.3141663275
  H        15.3645378694        5.1099394705        7.2575969243
  C        17.1670144948        5.4787492308        6.1016059916
  H         6.7452325185        4.7971448578        2.6879726388
  H         6.6665858940        5.3982750666        1.0353524292
  C         5.3943949082        6.4727153781        2.3692222150
  S        11.8173131255       -2.0189416292        1.6182175788
  N        12.1434811829       -1.6228928106        0.0915820377
  C        12.3518064361        0.3708734207       -1.3352762249
  H        12.5792084320        2.4448889500       -2.1119504402
  C         6.1524312820        7.6894672107       19.7864885198
  N         6.1214634020        9.0971738449       19.9728893882
  O         6.2340943838       10.8747683594       18.5548228897
  H        17.0257438121        4.6897192273        5.3160973518
  H        17.5795794441        6.3621412846        5.5285540342
  C        18.0472774023        5.1233835950        7.3119061167
  H         4.5683034768        5.7257062676        2.3395659581
  H         5.4653956543        6.7404038939        3.4154775805
  C         5.0556256233        7.5929530509        1.3943214452
  C        12.6515981592       -0.4086128677       -2.4472449551
  S         6.0177822438        6.6181258865       21.0632752328
  C         6.1708045778        9.7851762813       21.3218554472
  H        17.3722881317        4.9627927282        8.1417541674
  H        18.4779894134        4.1539683516        7.0692390190
  C        19.1936618443        6.0883266006        7.6292677207
  H         4.9527016361        7.1282144659        0.4204851559
  H         5.9030448053        8.2413297095        1.3367690847
  C         3.7645631605        8.2547374028        1.7150533399
  H        12.4068571481       -1.4769761659       -2.3478607507
  C        13.1012161048       -0.1352239094       -3.6933188602
  H         5.6821559814        9.0290440326       22.0324354435
  H         5.6170233982       10.6836163079       21.3146909675
  C         7.6239441361        9.9136213424       21.7299972308
  H        19.4586076459        6.0356608475        8.6410491991
  H        18.7890106653        7.0965118521        7.4523891637
  C        20.3779249225        5.9124952153        6.6988637410
  H         3.2211407987        8.5789221924        0.8431568338
  H         3.2021706296        7.4317230590        2.1899129989
  C         4.0244044645        9.4990896732        2.5753270633
  S        13.7587012722        1.3085764225       -4.2945125847
  C        13.1485802253       -1.2933815670       -4.6850457859
  H         7.8692712426        8.9203194940       22.1003406945
  H         7.8750471372       10.6537881225       22.4987660468
  H         8.3189904194       10.0067257486       20.8806491797
  H        20.0483758931        6.2453972694        5.6219815496
  H        21.2388305320        6.4602621620        7.0210831269
  H        20.7705712409        4.9168758415        6.6471177363
  H         4.1915394169        9.3632870420        3.6160581599
  H         4.7896571311       10.0777785851        2.0656359040
  H         3.1449587875       10.1635166607        2.4843424913
  C        14.1116581698        0.4730139415       -5.8606256982
  N        13.8085647828       -0.8479635587       -5.8211041795
  O        12.7136975986       -2.4209687872       -4.5350557822
  S        15.2070920542        1.0823159240       -7.0569624361
  C        13.9731497507       -1.7014788101       -6.9513711690
  H        14.3435497899       -2.7170500712       -6.6911204688
  H        14.5534724973       -1.2586193287       -7.6703710503
  C        12.6979171460       -1.9400454413       -7.7930485544
  H        12.1709742643       -2.8826786192       -7.4935085020
  H        12.9755086473       -2.0095023881       -8.8691482204
  H        12.1616961031       -0.9957737139       -7.5788889462
  H        -3.6405084613       14.5232209854       17.0064356123
  C        -2.9735275050       13.6969960583       16.8148429959
  H        -3.5305515169       12.8492240848       17.0931763806
  C        -1.7155894618       13.7280052598       17.6993605821
  C        -2.6262029423       13.5088215321       15.4057956177
  C        -1.8795581506       13.0997229661       19.0822456151
  H        -0.8425338091       13.2982341764       17.1658146189
  H        -1.3955454251       14.7531468806       17.7393078643
  H        -1.9145060428       14.2697456926       15.2028456466
  H        -2.1331211055       12.5620812870       15.2270723923
  H        -3.4169835179       13.7259009456       14.6902423090
  C        -2.4347130842       13.9968891776       20.0910993999
  H        -0.8499129815       12.9335223545       19.4452600569
  H        -2.4884066904       12.2577594281       19.0304959828
  C        -2.7191278092       13.1259928805       21.2933417525
  H        -1.7241898790       14.7092498528       20.4110193218
  H        -3.3166448754       14.5312925761       19.8309433538
  C        -1.4981812013       12.4977657843       21.9768873446
  H        -3.3762928028       12.2740719682       21.0447256189
  H        -3.2294399357       13.6016787955       22.0863183507
  C        -0.3820941342       13.5074613686       22.3438569970
  H        -1.8816488228       11.8666227743       22.7488044053
  H        -1.1899632310       11.7720117736       21.1897153170
  C         0.8916910758       12.9416539462       23.0063315359
  H        -0.1152766705       14.1018806016       21.4715234503
  H        -0.7996323083       14.2541593849       22.9927859252
  C         1.3945215854       11.6367429176       22.3347817095
  C         0.5047623968       12.2163850361       24.2756546768
  C         2.0255095406       14.0301673209       23.1416968854
  C         1.1331900347       10.5330815595       23.1594443428
  C         1.9989809354       11.3093079204       21.1940145932
  C         0.5759391131       10.8965915660       24.3802302586
  C         0.0998612068       12.8780154336       25.4230806221
  H         2.2162489934       14.3624078510       22.1097617695
  H         1.7154841775       14.8048592319       23.8345709521
  C         3.4110517459       13.4660227163       23.6159000514
  S         1.4890963021        9.0924474648       22.3588491691
  C         2.0809653165        9.9882466588       21.0270636940
  H         2.2815637816       12.0924007386       20.5704837430
  C         0.2790236662       10.2571352840       25.5783569924
  H        -0.0854360909       13.9211051748       25.2033986104
  C        -0.2901673883       12.3227056623       26.5970150418
  H         3.8540241615       12.9192159170       22.7980159614
  H         3.3246572286       12.7813019838       24.4313405060
  C         4.4464217970       14.4908601633       24.0039123447
  C         2.5817304569        9.2986265139       19.7937927865
  C        -0.1842760543       11.0114135958       26.7516301450
  H         0.5100278511        9.1747560072       25.8226875154
  C        -0.7191265578       12.7613543801       27.8626047084
  H         5.1747445791       14.2024474701       24.7604157897
  H         3.9519301218       15.2789030368       24.4810094396
  C         5.1981962166       15.1392802271       22.8169002266
  C         2.6441727596        7.8931391872       19.5356470957
  C         3.0564631848       10.2281529825       18.6720446200
  C        -0.5753688763       10.3460810319       28.0824767156
  C        -0.9293089859       11.6995680633       28.7333256351
  S        -0.9419037583       14.2558794433       28.6234805559
  H         5.7040928658       16.0380658130       23.2393332638
  H         4.4490963542       15.5063021640       22.1309519672
  C         6.4204108589       14.3743400447       22.1602229474
  N         2.2902232746        6.9144432656       20.4415035375
  C         2.9177516642        7.4179717085       18.2911359750
  C         3.3495306909        9.6784364886       17.5048025151
  H         3.0782788331       11.3413936095       18.8730653910
  C         0.5540648902        9.6220773163       28.7855401524
  C        -1.8847858290        9.5401843570       28.1592863025
  C        -1.2307423503       12.0833936762       30.0729512099
  C        -1.3224095132       13.4449723591       30.1437484675
  H         7.2638919129       15.0712941176       22.2085582499
  H         6.5914050317       13.4251711943       22.6282808452
  C         6.1354760447       14.0754803317       20.6501942468
  S         2.5780594431        5.4830716609       19.7377437139
  N         2.9143241025        5.9938106922       18.2235659675
  C         3.2175107131        8.2335679593       17.1712100175
  H         3.6380298254       10.3975279974       16.7137696335
  H         0.7211030193        8.6504815568       28.2932114714
  H         0.1366253708        9.2093843371       29.6600721641
  C         1.8229750297       10.4674773459       28.9844715958
  H        -1.7432041459        8.5703467527       27.6093689990
  H        -2.0008477068        9.1970286207       29.1781640040
  C        -3.1890425642       10.0951270266       27.5254180946
  H        -1.2889929239       11.2949533990       30.8113285343
  C        -1.6039457626       14.3007251631       31.3587743414
  H         5.7181187885       14.9923467495       20.2277629210
  H         5.3490068123       13.3452991697       20.4734862295
  C         7.3217519207       13.5442057159       19.9071756140
  C         3.4227701330        7.6985739171       15.8260132321
  H         2.0692007385       10.9286623630       28.0380071309
  H         1.6251844021       11.2985249857       29.6753408338
  C         2.9839327291        9.5453354283       29.5109312736
  H        -2.8708278843       10.3313990098       26.4116884032
  H        -3.6296588523       11.0266893714       27.9300713369
  C        -4.3664908526        9.1556307049       27.4588229464
  C        -1.7293228524       15.7210867977       31.4400605916
  C        -1.9444110008       13.6365145577       32.6089327445
  H         8.2006187342       14.0001168970       20.3837375465
  H         7.4718518088       12.5222545750       20.0273623503
  C         7.2620328350       13.9266925142       18.4015767424
  H         3.2002792370        6.6720121161       15.7907042598
  C         3.6947503615        8.2608433622       14.5951411246
  H         3.4461788615        8.9037920211       28.7472984179
  H         2.5732433502        8.7945880890       30.2775647613
  C         4.0864808642       10.4258947766       30.1914705911
  H        -4.0575203366        8.4272183182       26.7185475614
  H        -4.6513983840        8.8681681815       28.4356837677
  C        -5.5035105297        9.9019425528       26.9838771310
  N        -1.4736046537       16.6687795220       30.3908998664
  C        -1.9271466228       16.3949342330       32.6556761573
  C        -2.1558772696       14.3096062416       33.8106000041
  H        -1.7513923519       12.5967886279       32.5551669428
  H         7.2939823562       13.0889531483       17.6893287514
  H         6.2969780959       14.3634942893       18.0841784422
  H         8.0515958186       14.6442335544       18.1108844321
  S         3.9905614708        9.9473998434       14.2534210313
  C         3.8980294773        7.2854814111       13.4910861661
  H         4.1131556140       11.3234681120       29.5520269001
  H         3.6858527585       10.7127300987       31.0943916435
  C         5.4648790677        9.7642111610       30.0880968649
  H        -5.6115714262       10.7444435621       27.6581228753
  H        -6.3484625568        9.2283695737       27.1122690903
  C        -5.4352879719       10.3769293284       25.5272418722
  S        -1.3628100744       18.1597642898       31.0386558505
  N        -1.8332993131       17.7950397486       32.4936524318
  C        -2.2569505516       15.7653141626       33.8971946131
  H        -2.3488536770       13.6947039953       34.6508793437
  C         4.2929643678        9.2992293238       12.5759149705
  N         4.2411154407        7.9655723521       12.3890882167
  O         3.7070547001        6.0774255058       13.5369552168
  H         6.1680083233       10.4827836071       30.5370544213
  H         5.7669418533        9.5742726598       28.9866283083
  C         5.5809810851        8.4243611511       30.8349115838
  H        -4.6343066844       11.1312614723       25.3462340548
  H        -5.2078169321        9.6113637717       24.8837148980
  C        -6.8040384075       11.0051333154       25.1381190790
  C        -2.5443311119       16.5662861338       35.0109155802
  S         4.8992348801       10.2794341056       11.2114666536
  C         4.2148663359        7.1522663554       11.1741658311
  H         6.0236450993        8.6960879776       31.8020403689
  H         4.6441858730        8.0612628131       31.1171126089
  C         6.3221132571        7.3843731477       30.1321807021
  H        -6.6666813068       11.5266612196       24.2102927118
  H        -7.0065733956       11.7388680719       25.8893704610
  C        -8.0176520171       10.0640880358       25.1722880517
  H        -2.0524513148       17.5879447859       35.0654785219
  C        -3.1592294266       16.2439091306       36.2117251619
  H         4.9856198025        7.5112398930       10.4954853124
  H         4.4323248411        6.1167412356       11.3734759544
  C         2.7643720624        7.1035585353       10.7094859508
  H         7.3266905562        7.7544581747       29.7856723821
  H         5.7623297061        7.1263779745       29.2113483881
  C         6.7131436262        6.0866331028       30.9149324122
  H        -8.6304391501       10.2731393056       24.2929470034
  H        -7.7704893291        9.0171121553       25.1327769368
  C        -8.9852761175       10.3373640447       26.3631065356
  S        -3.8350680896       14.7309641281       36.5712645571
  C        -3.1389554690       17.2731555231       37.2942415296
  H         2.5281262896        6.3230027088       10.0217600298
  H         2.0185371778        6.9034756281       11.4658638394
  H         2.6399054827        7.9944591107       10.1353330830
  H         7.5557182337        6.3813615248       31.4851752259
  H         6.8402158407        5.2368405611       30.2926780260
  H         5.9365147151        5.8360226601       31.6011496354
  H        -8.4760013953       10.9327484543       27.1477700388
  H        -9.3040631451        9.4427203367       26.8186309540
  H        -9.8341090967       10.9373922272       26.0544948805
  C        -4.2568412925       15.4670206464       38.1147115836
  N        -3.8671110814       16.7523635050       38.3314047875
  O        -2.7764251023       18.4852889858       37.1415639050
  S        -4.6875113384       14.5597730386       39.5363169530
  C        -4.0383757811       17.4790585025       39.6143362431
  H        -4.1663465841       18.5152757010       39.3422484291
  H        -5.0060478961       17.2502542723       40.1462708240
  C        -2.8425402129       17.5199150392       40.5394021135
  H        -2.8928447001       16.7617459235       41.3412454495
  H        -1.8289892044       17.5378294297       40.1599903046
  H        -2.8483086931       18.5191491702       41.1148048927
