352
i=
  H         4.0364262370        0.8681090805       12.4191693783
  C         3.6198791645        1.8508471593       12.4958514935
  H         4.4222921351        2.4964385806       12.4655645673
  C         2.7133343979        2.2257160474       11.2970348599
  C         2.7793044126        1.9360604548       13.7631739879
  C         3.4976486534        2.4075753566        9.9569797661
  H         2.2518851910        3.2065842097       11.3827099801
  H         1.7904493225        1.5300644906       11.1417630752
  H         3.4872471083        2.2071676402       14.5547526405
  H         2.3364364954        1.0019833571       14.0068546913
  H         1.9679453211        2.7323238982       13.6618957614
  C         4.5178210850        1.2648431999        9.6411948694
  H         2.7210508251        2.6793706916        9.1747801825
  H         4.0050978920        3.3559729375       10.0293131845
  C         5.3293513106        1.3789791557        8.4037772156
  H         4.0544216162        0.3120209430        9.6961750134
  H         5.2102210672        1.3043063101       10.5001230473
  C         6.4322223143        2.3815426096        8.6266041284
  H         4.7013029446        1.8052883790        7.6314939474
  H         5.6646184393        0.4086587741        8.0440588336
  C         7.7177230113        1.6632769468        9.1611125391
  H         6.6029531723        2.8900936564        7.6743575144
  H         6.1316805365        3.1222680258        9.3569637185
  C         8.8758733100        2.6676110526        9.2278162144
  H         7.9744766288        0.8187237895        8.4310255217
  H         7.5805704988        1.1928894119       10.0682296157
  C         8.4724998446        4.0036375053        9.9062689640
  C         9.3475776593        3.3510584615        7.9969816947
  C        10.0946262392        2.0105298638        9.9578031249
  C         8.6982862889        5.0933579576        9.0995883909
  C         7.9102084495        4.3617866546       11.1413693876
  C         9.2725511132        4.7250165645        7.8818297854
  C         9.7800626188        2.7727484125        6.8121271362
  H         9.6858356579        1.6543204615       10.9821780825
  H        10.5098140679        1.2549190363        9.3865438407
  C        11.2026189884        2.9453416471       10.2631863334
  S         8.1870258350        6.6300714829        9.9150727495
  C         7.8729071021        5.6968836317       11.3042335264
  H         7.5556223981        3.6462491678       11.8904159376
  C         9.6929726313        5.3360608491        6.7455285567
  H         9.8189231243        1.6853771121        6.8340640384
  C        10.1905598326        3.4060267825        5.6886036760
  H        10.9297433140        3.8959055902       10.7108133741
  H        11.7915401768        3.0374619944        9.2795021746
  C        12.3410365673        2.3810019576       11.2081860961
  C         7.4689265017        6.2703952939       12.5891229510
  C        10.1472171041        4.7171408213        5.5805221587
  H         9.5587584033        6.4135262576        6.5831585006
  C        10.6085626293        3.0209577086        4.4524994074
  H        13.1425629882        3.1057264495       11.2215235467
  H        12.7148266454        1.3800533772       10.8537506002
  C        11.7256899814        2.2075772194       12.6452924454
  C         7.4666337730        7.6558957565       12.9026684949
  C         7.2303097000        5.3927210178       13.7773369101
  C        10.5507220819        5.4151911840        4.2730306631
  C        10.9107209281        4.1075006187        3.6755471742
  S        10.8218215369        1.4931652186        3.6273347053
  H        11.0380376447        3.0964877225       12.9215879798
  H        11.2944380005        1.2489806257       12.8370221461
  C        12.9048218060        2.2173411525       13.6204505601
  N         7.6798170103        8.7078645898       11.9946385214
  C         7.1955620339        8.1896142284       14.1836676716
  C         6.8606923985        5.8793409160       15.0452680710
  H         7.2705305654        4.2994278712       13.6275726999
  C        11.8198014148        6.2711450579        4.4343675559
  C         9.3548217961        6.1199017322        3.6152471842
  C        11.5580527512        3.7055297675        2.4738012093
  C        11.5476658254        2.3273851883        2.2986404750
  H        13.4241076826        3.2054284435       13.5975698457
  H        13.6455830565        1.4194581907       13.3723431994
  C        12.3661361635        2.0187366747       15.0186344958
  S         7.6240470659       10.1828349254       12.7532454455
  N         7.3589670876        9.5631607158       14.2573264213
  C         6.9853322561        7.3648303137       15.3393848774
  H         6.5326177529        5.2386039402       15.8468354409
  H        11.6179089258        7.1505753848        5.0752645892
  H        11.9593610891        6.7224455818        3.3833812965
  C        13.0173181485        5.5001801728        4.9359135862
  H         9.1295079802        7.0966682755        4.0698501357
  H         9.7718637348        6.3517884156        2.5993616595
  C         7.9644304135        5.4073061257        3.3958171984
  H        11.7797978692        4.4454153631        1.7882831369
  C        11.8733084281        1.6462246516        1.0182179172
  H        11.8950151882        2.9362433413       15.3625134938
  H        11.6568593986        1.1728946448       15.1581498525
  C        13.4118776333        1.6160407964       16.0572293177
  C         6.7229019570        8.0425831744       16.5888596120
  H        12.8514150691        4.9713111398        5.8355544601
  H        13.3778081965        4.8129950035        4.1753588321
  C        14.1750995508        6.4537365182        5.1118249335
  H         7.4057566592        5.2965345658        4.3083204416
  H         8.1912063352        4.4022843945        3.1139880888
  C         7.0846987113        6.0573411873        2.3231805090
  C        11.9035554924        0.2662876263        0.8273817845
  C        11.9964227042        2.4626866396       -0.2689433595
  H        14.2315880991        2.3020114753       15.8672957526
  H        13.7905041200        0.5627028292       15.9325407729
  C        12.9550114602        1.8691027183       17.5575950331
  H         6.8971465530        9.1078805252       16.5833810664
  C         6.4661638882        7.5517707392       17.8774583883
  H        13.9931114829        7.1426891336        5.9152755859
  H        14.2815362551        7.0357961655        4.2650987618
  C        15.5013730549        5.7222162671        5.2831264406
  H         7.5767488355        6.9020343694        1.8608181454
  H         6.8016760110        5.3198108315        1.5334544897
  C         5.7134155886        6.4739579256        2.9634625432
  N        11.5331435613       -0.6232152077        1.7434288687
  C        12.0796329103       -0.3294788360       -0.4137042193
  C        12.2203961764        1.8766902116       -1.4980107298
  H        12.0175871560        3.5633692895       -0.1742718763
  H        12.9519395282        2.9869627264       17.6202357115
  H        13.6566752382        1.4388253485       18.2872637137
  H        12.0079742491        1.3780478811       17.7140367386
  S         6.2849911248        5.8456883457       18.2630068109
  C         6.3119657640        8.5178350460       18.9200082827
  H        15.3955350046        4.7202617941        5.1434311494
  H        16.1937735489        6.0147470955        4.5349604386
  C        16.1013895627        5.8905023880        6.6045918576
  H         5.9040070942        6.9796936883        3.9076372883
  H         5.0174594717        5.6523482302        3.0491115100
  C         5.1034146206        7.4412982929        1.9145613810
  S        11.4286234186       -2.1269853846        1.1078324959
  N        11.8680863333       -1.7156512192       -0.3916685817
  C        12.2521801356        0.3848508908       -1.6195168481
  H        12.3268143638        2.4374390433       -2.4146265211
  C         5.9471881570        6.4166772930       19.8759123986
  N         6.0078891439        7.7688674949       19.9987582450
  O         6.4833283266        9.7713089546       18.9814113940
  H        16.1808167166        6.9530387865        6.7942176469
  H        15.3756287615        5.3653514908        7.3312201429
  C        17.4649424673        5.2195319713        6.7949655790
  H         5.8484492139        8.2709747765        1.6522287444
  H         5.0634759741        6.7422563723        1.0187562471
  C         3.7856120411        8.1204065326        2.3128753303
  C        12.4968401169       -0.3883581326       -2.8531951663
  S         5.3136181842        5.4049606715       21.2258388487
  C         5.8986417001        8.4239787905       21.3087937276
  H        17.6939075407        4.9799439476        7.8558350027
  H        17.4832014269        4.2469609043        6.2450468198
  C        18.6163826968        6.0967884332        6.4082429558
  H         3.8486243278        8.3000229861        3.3742511146
  H         3.0354130981        7.4392481052        2.0453812063
  C         3.4448731206        9.3669532818        1.6081788233
  H        12.1762899248       -1.4115475332       -2.8264204643
  C        13.0833843911       -0.0525013726       -4.0579060546
  H         5.3325522626        7.8081431730       22.0342265524
  H         5.3440857233        9.4123851722       21.2067023271
  C         7.2872100182        8.5356466092       21.9072384297
  H        19.2794500367        6.3060864971        7.2381502802
  H        18.2764541144        7.0824612942        5.9255976687
  C        19.4766148067        5.3449757027        5.3766201598
  H         2.3966331900        9.6366279840        1.9051693548
  H         4.0748939292       10.1830269457        1.9672360252
  C         3.5870621581        9.2496573010        0.0622045256
  S        13.6589172918        1.4742529323       -4.4885297550
  C        13.3100856247       -1.0873389974       -5.0245256619
  H         7.6932675032        7.6158858821       22.3503563186
  H         7.2766231036        9.2394008419       22.6696904427
  H         7.9919939662        8.9188056430       21.1417551871
  H        18.8899656160        4.8183893731        4.5992121810
  H        20.1893046570        5.9723563533        4.9116424955
  H        20.0932533432        4.6414879333        5.8777243825
  H         3.0408407932        9.9616919069       -0.5343016526
  H         4.6106540065        9.2571338775       -0.2338454144
  H         3.2940442060        8.2540866892       -0.3163951565
  C        14.0323070503        0.8498296976       -6.0545055465
  N        13.8849921005       -0.5041582728       -6.0828262715
  O        13.0062517042       -2.2499121090       -4.8597459568
  S        14.6963427953        1.6682066837       -7.5057326951
  C        14.1400622622       -1.2712359326       -7.3394033247
  H        14.4499528254       -2.3083873101       -7.1094236533
  H        15.0342614313       -0.8398419742       -7.8416655232
  C        12.9532305543       -1.2436547246       -8.3432803949
  H        12.9676971461       -2.0247138044       -8.9785651994
  H        13.0342932963       -0.2704801478       -8.8178024136
  H        11.9452827933       -1.2998354758       -7.9470742186
  H        -3.5876655357       14.4216625352       15.8795851318
  C        -3.5610826458       13.3250479731       16.0049881812
  H        -4.5179417327       13.1084530083       16.4165053228
  C        -2.4070750320       13.0526778902       17.0260872531
  C        -3.2370079432       12.7708118456       14.5927129540
  C        -2.8589142254       13.2820108324       18.4136159944
  H        -2.0029750338       12.0658261517       17.0475084443
  H        -1.5093158577       13.6430226669       16.8009506363
  H        -2.9258087249       11.7403695400       14.6835100808
  H        -4.0486977848       12.7891629437       13.8555387366
  H        -2.3446234085       13.2702881197       14.1480903694
  C        -1.7182977425       13.0858435104       19.4532911103
  H        -3.6487383778       12.6252910830       18.7261838622
  H        -3.4111049383       14.1762896159       18.5509800959
  C        -2.2036230231       13.1737738791       20.8683001522
  H        -1.1410669473       12.1593568860       19.3692319884
  H        -0.9485441906       13.8979113642       19.2467764107
  C        -1.2500797983       12.5809357768       21.8612470090
  H        -3.1300202451       12.6313172028       21.0017864388
  H        -2.4186488925       14.1591606184       21.0211060906
  C         0.0148485151       13.3903118357       22.1338354648
  H        -1.8286427134       12.5489230569       22.7977284767
  H        -1.0321991323       11.5608800378       21.5786496216
  C         1.0669810804       12.7229902544       23.0780956555
  H         0.4802773303       13.7009080719       21.1542056163
  H        -0.1087261971       14.3421352172       22.5996788064
  C         1.5531812760       11.3760991237       22.3955089341
  C         0.5803067613       11.9782165155       24.2553032081
  C         2.3004130049       13.6523063771       23.4008709351
  C         1.2605929771       10.2520105736       23.1539101392
  C         1.8953627981       11.0328235753       21.1130901879
  C         0.6367126554       10.6423787409       24.3137882683
  C         0.0010514088       12.5224997109       25.3902695298
  H         2.5869457903       14.0724745977       22.4284156987
  H         1.9748342055       14.5417760079       23.8980019714
  C         3.4425870925       12.9661601766       24.0177673187
  S         1.7590765314        8.7526979257       22.4711454421
  C         2.0785171021        9.6864145287       21.0058281822
  H         1.9349459027       11.8066020188       20.4007086073
  C         0.1141835204        9.9796356791       25.4088009020
  H         0.0430675470       13.5586347415       25.4763880634
  C        -0.4660938494       11.8233208753       26.4885222770
  H         3.8177291576       12.1705622372       23.5367846380
  H         3.1019898947       12.6169340714       24.9709076123
  C         4.5878087037       13.9645162699       24.3508732229
  C         2.5473637860        8.9135137525       19.7930606594
  C        -0.3856637185       10.4947965274       26.5609858861
  H         0.3007674937        8.9577105828       25.3651780416
  C        -1.0030601949       12.2246180547       27.7125860398
  H         5.2984857822       13.4860165698       25.0594092991
  H         4.1490660009       14.7395785915       24.9972182866
  C         5.2980295715       14.4700256626       23.1493699868
  C         2.5345619417        7.5128973459       19.5281523703
  C         3.1574377205        9.7273962320       18.6403951385
  C        -0.9953909654        9.7822743892       27.8000890041
  C        -1.2343007120       11.1484098307       28.4799178942
  S        -1.3708537212       13.7023487685       28.4872755912
  H         5.7036264053       15.4402886239       23.5072918908
  H         4.5568032283       14.7706165739       22.4187949411
  C         6.4511824752       13.6524369978       22.5675946634
  N         2.2414423722        6.5776489373       20.5228296280
  C         2.7517685839        6.9478711806       18.2958362881
  C         3.5074198345        9.0817099961       17.4560695427
  H         3.3709285412       10.7860953834       18.7299627716
  C         0.0268928524        8.9905103149       28.5345455666
  C        -2.2960997225        8.9760633297       27.5072649652
  C        -1.6661423202       11.4811359067       29.7601751414
  C        -1.6809294917       12.8535349285       29.9695304815
  H         7.1718272187       14.3104549919       22.1730022321
  H         6.8964777545       13.0452921703       23.3635019389
  C         5.8743165619       12.6523554670       21.6019192248
  S         2.3212595250        5.0833194892       19.8838905199
  N         2.5114341089        5.5881597286       18.3203663179
  C         3.2106308314        7.6594089220       17.2165820341
  H         3.8903124192        9.6649849265       16.6832398997
  H         0.3824178025        8.3731289071       27.7295899537
  H        -0.3097327984        8.3384778564       29.2840400773
  C         1.2142484746        9.8115730604       29.0370357972
  H        -2.2231853828        8.2744967721       26.6744480633
  H        -2.5025606349        8.3842819895       28.3830901692
  C        -3.4740645620        9.9713615111       27.2534787692
  H        -1.9169869587       10.6916367778       30.4654262452
  C        -1.9302204395       13.6105128115       31.2659558210
  H         4.8404405007       12.4006822759       21.8952494135
  H         6.4639179626       11.8082397812       21.6828595808
  C         5.8730521461       13.0633190074       20.2075870025
  C         3.4123712335        6.9596606283       15.9742955706
  H         1.6240374950       10.2727338590       28.1611716180
  H         1.0211510277       10.5987018684       29.7983949486
  C         2.3557262459        8.9589444425       29.6145076996
  H        -3.1977395703       10.6555286090       26.4463264707
  H        -3.7182917089       10.7083747391       27.9815110527
  C        -4.8452695975        9.3579159938       26.9538073069
  C        -1.8808281265       14.9936915104       31.5500952092
  C        -2.1579788404       12.7320349414       32.4453098690
  H         5.1684845805       12.3464184866       19.7897430413
  H         5.4460962675       14.0506735469       20.0835070208
  C         7.2172183411       12.9815812964       19.4952357460
  H         3.2705815891        5.9175230203       16.1079052797
  C         3.7700166935        7.4320027589       14.7297888419
  H         2.5804654943        8.0698582784       29.1221478696
  H         1.9670342371        8.5863636878       30.5154089896
  C         3.6688540430        9.6587775090       30.0148830717
  H        -4.9316593476        8.7937959871       26.0474230078
  H        -4.9653485532        8.5502472850       27.6393432493
  C        -5.9320524992       10.4620648858       26.9088781469
  N        -1.6715744575       15.9770407560       30.5726429289
  C        -2.2417005105       15.5131897272       32.7429629749
  C        -2.4022391084       13.2840790478       33.7031503685
  H        -2.0599024910       11.6737320217       32.4106069267
  H         7.0469000063       12.2373704466       18.6957871896
  H         7.4980856511       13.9466964687       18.9944408130
  H         7.9968310158       12.7367741300       20.2134546240
  S         4.1608065071        9.0709433361       14.2067915772
  C         3.7816433660        6.4261140078       13.6215983807
  H         3.6999274133       10.5447234110       29.3420234855
  H         3.5872043558       10.0308732324       30.9730494547
  C         4.9633623812        8.9367883625       29.8339924218
  H        -5.7232217663       11.1730264137       26.1001076324
  H        -6.0227982939       10.9679724639       27.8380630064
  C        -7.2558932619        9.8510148392       26.5587076252
  S        -1.9255688549       17.4038896808       31.2787602954
  N        -2.3391110102       16.9028759822       32.6918823404
  C        -2.4434378029       14.7634242829       33.9259896556
  H        -2.5251910638       12.5616270931       34.5113279692
  C         4.2154560956        8.3745917243       12.5871557590
  N         4.1476663281        7.0007553294       12.4893590909
  O         3.6421022375        5.2436159381       13.8633490181
  H         5.8870378543        9.5419067343       30.0350767572
  H         5.0218689009        8.7171429029       28.8076879582
  C         5.0880052840        7.6115217876       30.6209052448
  H        -7.1497827626        8.8403980378       26.2664238431
  H        -7.9304840720        9.8597155318       27.3194718765
  C        -7.9505591233       10.4849679739       25.3698699803
  C        -2.8566731224       15.4529659394       35.0992841672
  S         4.5750404525        9.3476327144       11.1478693770
  C         4.1814416079        6.2177805886       11.2479300215
  H         5.5165036720        7.7336740980       31.5839491638
  H         4.1074837814        7.2422596921       31.0215511283
  C         5.7102104540        6.5467944405       29.8045902565
  H        -7.2230831310       10.7915351940       24.6070996520
  H        -8.4971104825       11.4431025320       25.7312321476
  C        -8.9612604379        9.5856779937       24.7097693132
  H        -2.7379072614       16.5392204472       35.0727099508
  C        -3.3274869512       15.0157218871       36.3157066912
  H         4.9298778846        6.5834093438       10.6356446802
  H         4.4840462679        5.1988992091       11.5841743926
  C         2.8166722695        6.3395105696       10.6134797160
  H         6.3637400346        6.9147201129       29.0191244923
  H         4.9725873210        6.0740323910       29.0707359166
  C         6.5308585359        5.4353677672       30.5844218563
  H        -9.1876718108       10.0292046935       23.7539267029
  H        -8.5599016231        8.6381018598       24.4600391808
  C       -10.1452251729        9.4048738977       25.6701468131
  S        -3.8875701405       13.4319162657       36.6891759970
  C        -3.5031996952       16.0229147868       37.4201080116
  H         2.6517302179        5.6313177522        9.7785666107
  H         2.0702731801        6.1982575468       11.4069791939
  H         2.8706151181        7.3844000091       10.2746968710
  H         7.1094497263        5.8132759481       31.3808721817
  H         7.2578445860        4.9817623999       29.9003423221
  H         5.8246610736        4.6414546495       30.9033807669
  H       -11.0126179023        9.1206544859       25.0812930370
  H       -10.5033183234       10.3013869095       26.0957397666
  H        -9.9521148406        8.6818487471       26.5082884464
  C        -4.2860534702       14.0594327571       38.2866342348
  N        -4.0982815555       15.3874976700       38.4709937827
  O        -3.3707068657       17.2113619192       37.2064090250
  S        -5.2267020220       13.1569587159       39.5169885278
  C        -4.3419787914       16.1623871942       39.7114787460
  H        -4.4450081192       17.2177794798       39.5070792518
  H        -5.1132075259       15.7198097309       40.2611671550
  C        -3.0769896275       15.9806863080       40.6210896834
  H        -3.3718283573       15.8007993683       41.6545234855
  H        -2.4406242383       15.1259850737       40.2769171140
  H        -2.6459940801       16.9635849450       40.7774637027
