352
i=
  H         5.9808540648        2.3924423867       12.7647040923
  C         5.0761203414        2.9578746213       13.0005199611
  H         5.3178361465        3.9518009176       12.6512287254
  C         3.7929330324        2.5971355850       12.2483234719
  C         4.8678292048        2.9629288315       14.5264599299
  C         3.9292121017        2.7584409162       10.7633274992
  H         3.1497541936        3.4534555381       12.6086362363
  H         3.3693250728        1.7005580568       12.6636199721
  H         4.8784935552        1.8920131558       14.9038564763
  H         4.0164655720        3.4745896744       14.9893634794
  H         5.7641706461        3.4116153570       14.9525181057
  C         4.6029169792        1.6115699281       10.0591495037
  H         2.9150688581        2.9287143737       10.4814517890
  H         4.2950829841        3.7178557850       10.4582977166
  C         5.1841052710        2.0060940803        8.7296633837
  H         3.9131322451        0.7747205337        9.9664297627
  H         5.4000484297        1.2471658950       10.6410767696
  C         6.5250473453        2.8459128675        8.7497484689
  H         4.3717390306        2.5346401318        8.2511109659
  H         5.3277550195        1.1509867916        8.0664350691
  C         7.7333135428        2.2113757377        9.4504495221
  H         6.7968564030        3.0677414264        7.7279536589
  H         6.2194779703        3.7471748679        9.3130283840
  C         8.9743843124        3.0358587675        9.3367005520
  H         8.0330645288        1.3302048989        8.8934168576
  H         7.4840704143        2.0788345936       10.5309381705
  C         8.7517556032        4.3507102668       10.1142951942
  C         9.2936036049        3.7328001151        8.1041513653
  C        10.1881014779        2.2565786125        9.9027301874
  C         8.9432735698        5.4549279105        9.2714746955
  C         8.3165704930        4.7296096604       11.4158898119
  C         9.3075213518        5.1007231031        8.0085336002
  C         9.7457598479        3.1450457723        6.9058623653
  H         9.9240623409        1.5927161034       10.7392792409
  H        10.5337237012        1.6751317379        9.0640260547
  C        11.3866049595        3.1549063627       10.3031002779
  S         8.7417382693        6.9586547215       10.0753833059
  C         8.2156163744        6.0660993458       11.4768372881
  H         8.0953290247        3.9124656926       12.1067266458
  C         9.6646858791        5.8038398252        6.8570221838
  H         9.6697603111        2.0674306389        6.7902569338
  C        10.0746841571        3.8524845509        5.7950547137
  H        11.1735581025        4.1608954464       10.7394823464
  H        11.8061015802        3.3874840143        9.3137346561
  C        12.3779105938        2.4240138570       11.1732921953
  C         7.8620436539        6.7006555510       12.8360549608
  C        10.0387576261        5.1973307219        5.6442571697
  H         9.7045197291        6.8637756093        6.6802554543
  C        10.5823388599        3.4513437459        4.5528167873
  H        13.3929803157        2.6539581632       10.7729732103
  H        12.3007878072        1.3361623267       11.1340286305
  C        12.1800312194        2.9023480920       12.6443048940
  C         7.8864980888        8.1151286295       13.1313603104
  C         7.3908464361        5.8249704765       13.9372862115
  C        10.4863901346        5.8296545437        4.3485403336
  C        10.7504755101        4.4941359797        3.6881424993
  S        10.9838638014        1.9404437075        3.8609972244
  H        12.6892807870        3.8569281596       12.7798089875
  H        11.0904311742        3.1251875883       12.7509828456
  C        12.7301665124        1.9031690137       13.6845243141
  N         8.2944324089        9.0360319424       12.2158869267
  C         7.5490238537        8.5804309817       14.3228597477
  C         7.0842602136        6.3562604789       15.1995981045
  H         7.5163300505        4.7468491947       13.9009308621
  C        11.6826820792        6.7551194112        4.5225694934
  C         9.3418346451        6.5376933562        3.5541694522
  C        11.2087971224        4.0400039721        2.4237550693
  C        11.4358827265        2.7085095084        2.3793607802
  H        13.6327835473        1.3457043925       13.3202794695
  H        12.0314904637        1.1082311305       13.7741782466
  C        13.0917326079        2.5646087034       14.9980166499
  S         8.2493748829       10.4963238117       12.9311089957
  N         7.6766159078       10.0080751759       14.3441402211
  C         7.1977855027        7.8511488396       15.4400582420
  H         6.8063596542        5.6980306960       15.9934354381
  H        11.4274322850        7.7780210354        4.8183605215
  H        12.1451764539        6.8707885666        3.5363067616
  C        12.8398746871        6.1030449518        5.3388517397
  H         8.8006980521        7.2340312396        4.1722550456
  H         9.8139701175        7.1119326026        2.8136843185
  C         8.2608026813        5.6673382490        2.7749567279
  H        11.3195257476        4.6972267355        1.6096452238
  C        11.8472611292        1.9806730356        1.1057506942
  H        13.9438997523        3.1790397081       14.8443494958
  H        12.2132036419        3.1524138133       15.1187849106
  C        13.2162996229        1.6173109200       16.1311057655
  C         6.8471141629        8.4359928099       16.6919593435
  H        12.5597487571        6.0719617184        6.3629576993
  H        13.0388605397        5.1013104984        5.0275584495
  C        14.1035599258        6.8825527899        5.1918289803
  H         7.5453328650        5.1353967893        3.4215027965
  H         8.5868809746        4.9264809771        2.0445694245
  C         7.3286483689        6.6909537071        2.0713424513
  C        11.9028122324        0.6017985707        0.9476716770
  C        12.1484446030        2.7530558137       -0.1527158857
  H        14.2555214752        1.5083540542       16.4042632867
  H        12.7543566431        0.6205637523       15.9744019932
  C        12.6043539804        2.2379043136       17.4172275590
  H         6.7867586393        9.5644334666       16.6213187697
  C         6.4567996179        7.9657330725       17.9182777747
  H        13.8898958779        7.8997262369        5.5507074934
  H        14.5197034683        6.8721527789        4.1934160774
  C        15.2485440227        6.4001791737        6.1250163446
  H         7.0658856343        7.5364532038        2.6372022318
  H         7.8968120730        7.0939079932        1.2888634198
  C         6.1961518594        6.0340358344        1.3842682059
  N        11.7019219281       -0.3858730262        1.9197089203
  C        12.2393929703       -0.0051979815       -0.2813642673
  C        12.4355501483        2.1697639550       -1.4105972316
  H        12.0227373770        3.8479469257       -0.0831755417
  H        13.3122764965        2.1716987369       18.3013012628
  H        11.7182811202        1.6447126402       17.7347023077
  H        12.3506948983        3.2947926346       17.2991255145
  S         6.3653675608        6.3480622247       18.4120457402
  C         6.2793471338        8.9587700489       19.0099050616
  H        15.4429370123        7.2006362854        6.8698707723
  H        14.9064132430        5.4981650830        6.6896114784
  C        16.4427508635        5.9612478576        5.2266367247
  H         6.0937720364        4.9782726592        1.6383288756
  H         6.3023666766        5.9110428535        0.3259552202
  C         4.9055479802        6.8170348502        1.6207296652
  S        11.9420210990       -1.8716306124        1.2410339285
  N        12.3279850392       -1.3567492176       -0.2053568034
  C        12.4341579827        0.6979537164       -1.5014685424
  H        12.5889261577        2.8077150192       -2.3147562555
  C         6.1801271296        6.9571383698       20.0098014985
  N         6.0477150119        8.2597253424       20.1406766907
  O         6.1790371817       10.1836552428       18.8580844631
  H        16.1386225850        5.3080916511        4.4393284606
  H        16.7923131866        6.8008451433        4.6218853743
  C        17.6127435316        5.3955499154        6.0398462885
  H         4.0371788454        6.2071281290        1.2842011606
  H         4.8694719741        6.9576194503        2.6676525204
  C         5.1362965504        8.2144131253        0.9723903791
  C        12.7614170324       -0.0812287529       -2.6503378471
  S         5.5900240595        6.0163469394       21.3965360518
  C         6.1224874716        8.9528083437       21.3741381577
  H        17.3049032242        4.9717691444        7.0270015813
  H        18.0142607937        4.5177084372        5.6166353896
  C        18.7097673319        6.4261448500        6.3762387251
  H         5.5266369155        8.0992187790       -0.0506485570
  H         5.8939051498        8.7734649112        1.5717534467
  C         3.9347690246        9.1265268780        1.0782193034
  H        12.4284074503       -1.1542406671       -2.6533176484
  C        13.2699198480        0.1829767171       -3.8900981626
  H         5.3641839531        8.5621725568       22.0216767968
  H         5.8494697213       10.0152420139       21.2135636164
  C         7.5983602927        8.8930896226       21.7968989598
  H        18.2297263984        7.1858478196        7.0519491564
  H        18.9474570503        6.8807565386        5.4433909191
  C        19.9809430118        5.8548148730        7.1118644979
  H         4.2578145359        9.9879678910        0.5299730852
  H         3.0163462108        8.6765320769        0.7043185320
  C         3.6720173894        9.4805927078        2.5048019190
  S        13.8129684785        1.6981934279       -4.4672688871
  C        13.1935428828       -0.9025057449       -4.9151485115
  H         7.6762599319        7.8813410330       22.2137738738
  H         7.7763600001        9.5879162318       22.6313985442
  H         8.2346821599        9.0371646726       20.9212211379
  H        19.6659640717        5.9379798029        8.1682105613
  H        20.1838720797        4.8736812717        6.7483079808
  H        20.8501110896        6.4169648241        7.0802872756
  H         4.6093834409        9.7968220856        3.0726879096
  H         2.9272409344       10.2889963015        2.5966013167
  H         3.1732774031        8.7049022995        3.0820500729
  C        14.1810736193        0.8298192434       -5.9700576450
  N        13.8481022481       -0.4514893701       -6.0218360406
  O        12.7227614763       -2.0199545613       -4.7810339242
  S        14.8541569957        1.5482503707       -7.4249407313
  C        13.9898425056       -1.2790269712       -7.2307369782
  H        14.1383209844       -2.2664361171       -6.9065674682
  H        14.9086922227       -1.0750132084       -7.7490127932
  C        12.6817644614       -1.2526264560       -8.1119613601
  H        12.8257961744       -1.5942925577       -9.1028197961
  H        12.1894274037       -0.3447470480       -8.0786482859
  H        11.9181458565       -1.8735795177       -7.6387187321
  H        -1.9823040143       15.2801633828       15.6708161674
  C        -2.5212213459       14.5724182176       16.3135039523
  H        -3.3558061146       15.2600375484       16.6621185109
  C        -1.7236004054       14.2867395543       17.6019504086
  C        -3.0541340591       13.3384995308       15.6078055640
  C        -2.5350844599       13.6633832438       18.7598197158
  H        -0.9522826121       13.6926228510       17.3276138736
  H        -1.2697254807       15.1987686857       17.9530250440
  H        -3.2809171525       12.5664972938       16.2645501591
  H        -3.8882146647       13.7242793584       15.0384948947
  H        -2.2974623193       12.9125140751       14.9151440052
  C        -1.6570434418       13.0711542844       19.8492080662
  H        -3.2717735805       12.9487088311       18.3734137398
  H        -3.0853036728       14.4367344715       19.3904164933
  C        -2.0816600589       13.4142486345       21.2761839017
  H        -1.7721889530       12.0004952143       19.6717388420
  H        -0.6246734992       13.3386073804       19.7140864939
  C        -1.0481174421       12.8205545090       22.2604239089
  H        -3.0145510537       13.0082750258       21.5217887849
  H        -2.1056299965       14.4838468558       21.4708214299
  C         0.2397464074       13.6916767026       22.4378426731
  H        -1.5863583349       12.6178690958       23.1652899163
  H        -0.7805938796       11.8104253819       22.0216122442
  C         1.4133385095       12.9184685921       23.1645688562
  H         0.5412699249       14.1272099863       21.4914658528
  H        -0.0007936873       14.5812646634       23.0234270186
  C         1.8961233840       11.5863014612       22.4976468413
  C         1.1086699272       12.1553637134       24.3981517002
  C         2.6056716667       13.8238864976       23.1557748842
  C         1.7502018826       10.4379804335       23.2782740742
  C         2.4110601079       11.2818137146       21.1854389134
  C         1.1991421511       10.8159721636       24.4730621912
  C         0.5518336368       12.7105034856       25.5395844812
  H         2.6848062537       14.4029295394       22.2152020644
  H         2.4402382779       14.6164719924       23.9449062438
  C         4.0128831253       13.2215802892       23.4863678087
  S         2.3157822518        8.9511902538       22.5237887880
  C         2.5006211882        9.9612461642       21.0696819437
  H         2.5512582493       12.0646521046       20.5196724837
  C         0.7627796340       10.1531160884       25.5108034545
  H         0.4668015638       13.8178529677       25.6118327604
  C         0.2154007222       12.1231511281       26.6610553617
  H         4.3988713346       12.5477440314       22.7958075312
  H         3.8885724734       12.5534672220       24.3540657772
  C         5.0335356107       14.2804051704       23.7122848495
  C         2.6762401698        9.2686387516       19.7747090274
  C         0.3184987805       10.7753017523       26.6926177291
  H         0.7711850011        9.0901077808       25.6044896686
  C        -0.3162865614       12.4326995344       27.9068622386
  H         5.7259568959       13.9491103526       24.4635516045
  H         4.5892673961       15.1265183715       24.1742230464
  C         5.9192322308       14.6793217074       22.4796669770
  C         2.7635183231        7.8855614083       19.4553520519
  C         2.9048811194       10.1402816824       18.6140570123
  C        -0.1139976489       10.0472211711       27.9562250906
  C        -0.4996236288       11.2977835430       28.6971591815
  S        -0.6722814450       13.8454223149       28.7259665957
  H         6.4501155353       15.5833638125       22.6733643179
  H         5.2898225320       14.9931159949       21.6442922368
  C         6.8400971265       13.5827291367       22.0391980578
  N         2.4643830581        6.8360900702       20.3585516695
  C         3.0776711168        7.4308405981       18.1742294442
  C         3.2489130609        9.6975122937       17.3865362276
  H         2.8634885962       11.1996798588       18.7742502795
  C         1.0026941161        9.3246438671       28.6835349946
  C        -1.3783348564        9.1923129290       27.7528717813
  C        -0.8785125582       11.5821900092       29.9584300070
  C        -0.9153273572       12.9298235846       30.1620466135
  H         7.9068299513       13.9855523762       22.1621408518
  H         6.7872023091       12.7380181691       22.7005693997
  C         6.6701216780       13.1295004761       20.6048511513
  S         2.3559426611        5.4493549364       19.5274621916
  N         2.9717310956        6.0503586172       18.1353900862
  C         3.4234468675        8.2537989380       17.0640256421
  H         3.4660599875       10.4925612090       16.6458613624
  H         1.3768636343        8.5194999312       28.0501230420
  H         0.5608776295        8.8635799060       29.6149063215
  C         2.2213972784       10.2091045908       29.0787019556
  H        -1.1065858042        8.4358570669       27.0284505433
  H        -1.4967850692        8.5898803103       28.6568311220
  C        -2.6473259414       10.0307680856       27.3937055524
  H        -0.9328691552       10.7957894358       30.6739312178
  C        -1.2129954606       13.6026078261       31.4956034547
  H         5.6737431492       12.7587011080       20.5927995306
  H         7.4334322600       12.3172241186       20.5481666748
  C         6.7740033045       14.2976143558       19.6372191696
  C         3.7044599158        7.5763860950       15.8415861959
  H         2.5961000942       10.6431119566       28.1196576312
  H         2.0309401790       11.0607344896       29.7725238606
  C         3.3215209284        9.2780421617       29.6459191408
  H        -2.4346347153       10.6035775099       26.5114788876
  H        -3.1152987377       10.6411556925       28.1975883525
  C        -3.7754283815        9.1080053443       26.9778606030
  C        -1.1710713510       14.9738209929       31.7778901218
  C        -1.4700825654       12.7643499785       32.6662408094
  H         5.9215455816       14.9021791946       19.6924231784
  H         7.6949749551       14.8417839663       19.7934117271
  C         6.8630456630       13.5777540309       18.2855347601
  H         3.7220422502        6.4945183734       15.9339857207
  C         4.0312709969        8.0700503687       14.6023707345
  H         3.5070329538        8.4048281596       28.9374170582
  H         3.0976157382        8.8874543802       30.6140215804
  C         4.6843419333        9.9525384081       29.8623548195
  H        -3.5269047898        8.6648008168       26.0093219861
  H        -3.9384500614        8.3212714641       27.6649159899
  C        -5.1624492624        9.6929308735       26.8217807537
  N        -0.9994725995       15.9063180256       30.8025581830
  C        -1.4990123255       15.5610481130       32.9700679612
  C        -1.7764964292       13.3186960217       33.9546851774
  H        -1.4066064778       11.6244372157       32.6669725482
  H         6.0293045408       12.9396920106       18.1339366649
  H         6.8826007783       14.3882256400       17.5522375443
  H         7.8044046651       13.0765789957       18.1432155270
  S         4.2582373030        9.7152845338       14.1101439756
  C         4.1115083316        7.0383263396       13.4900068065
  H         4.7976974164       10.6870096170       29.0769352148
  H         4.8032545888       10.4216223926       30.8683284728
  C         5.9149036024        9.0125814240       29.7434400183
  H        -5.4813041324       10.2690494413       27.7063346137
  H        -5.7633755721        8.7930099517       26.8124359251
  C        -5.2821711409       10.5044403315       25.5021109330
  S        -1.1404291656       17.3689732561       31.4141271477
  N        -1.4330531286       16.9529198569       32.9231862202
  C        -1.9398159352       14.8147987864       34.1129825970
  H        -1.8748136266       12.6507431321       34.7880343486
  C         4.4939852105        9.0932779073       12.4472563539
  N         4.4063760562        7.7161973510       12.3692649790
  O         3.9962485559        5.8490326790       13.6299877238
  H         6.7576286149        9.6316318844       29.5280135250
  H         5.7565664100        8.3627409837       28.9032897100
  C         6.0588018118        8.0243336757       30.9827000791
  H        -4.6334487946       11.4032491436       25.5800015403
  H        -4.8594221811        9.8929410265       24.7192350977
  C        -6.7252750226       10.9680216663       25.3156974925
  C        -2.2621872387       15.5087023467       35.3091246920
  S         5.0645109606       10.0490612643       11.0389842477
  C         4.4406158558        6.9591421999       11.0269387745
  H         6.5857734434        8.6971542813       31.6986929515
  H         5.1179714412        7.5673771505       31.4271706660
  C         6.9783854172        6.8915613433       30.5933343167
  H        -6.7823649730       11.3595369864       24.2613655931
  H        -6.8254865098       11.7458941304       26.0791106760
  C        -7.8107685900        9.9715468050       25.5796082890
  H        -1.8153364996       16.5277263019       35.3704566264
  C        -2.9174172250       15.1237421885       36.4608429763
  H         4.9801868951        7.5009338525       10.2078303183
  H         5.1157566940        6.1286439816       11.1014994303
  C         2.9554001662        6.6118246060       10.5608112337
  H         7.8397967799        7.3498800637       30.1672557162
  H         6.5592782901        6.4110126271       29.7092015142
  C         7.2415994244        5.8196478377       31.6585136632
  H        -7.5648558961        9.0406159486       25.0572191231
  H        -7.9849238931        9.7169529338       26.6243657220
  C        -9.0843862973       10.5564587555       24.9867478060
  S        -3.5609640091       13.5839819986       36.8224863335
  C        -3.0546438733       16.1329383980       37.4850986855
  H         2.1718185769        7.1786807684       11.0926331130
  H         2.7819553187        6.9769900758        9.5784668634
  H         2.7619262033        5.5651058488       10.5863415246
  H         7.4367169990        6.4445630211       32.5193658788
  H         8.0751343364        5.2827492564       31.3132648947
  H         6.3823357646        5.1403273757       31.8116182920
  H        -9.1006759464       10.5881926316       23.8616408988
  H        -9.3866294830       11.4673627889       25.4741785005
  H        -9.8912774930        9.8444176482       25.2445482146
  C        -4.1095849852       14.2638538622       38.3606787006
  N        -3.7959902085       15.5698641448       38.5101227090
  O        -2.7287871867       17.2976263286       37.3555930888
  S        -4.7775223924       13.3396887263       39.6718510949
  C        -4.0862216975       16.4068606710       39.6967636453
  H        -4.2790541899       17.3914698662       39.2715577809
  H        -4.9548495989       16.2145627593       40.3186980327
  C        -2.8957260152       16.2587935318       40.7102594237
  H        -2.0849423151       16.9914594640       40.4558667933
  H        -3.1313825964       16.5606120548       41.7274176486
  H        -2.4218690985       15.1900297525       40.7651098058
