352
i=
  H         5.1513255440        1.8694965836       12.5464146293
  C         4.2496112235        2.4425941967       12.7477393482
  H         4.6552158530        3.4766353417       12.8250642553
  C         3.2068010075        2.2931960394       11.6340766010
  C         3.5850400516        2.1427384634       14.0476208052
  C         3.6043949309        2.6383638638       10.1926339760
  H         2.2139909870        2.7226750584       11.8473552386
  H         2.9237291164        1.2365439690       11.5969859564
  H         2.8100488167        2.8485285721       14.4383624467
  H         4.3622420035        2.2606717245       14.7151713951
  H         3.2065514252        1.1312284935       14.1142950565
  C         4.4612891447        1.4488714023        9.5939273713
  H         2.6658472804        2.7822693529        9.5876287395
  H         4.1057943933        3.5643698159       10.1115392919
  C         5.0370866659        1.5960180016        8.1674830438
  H         3.7903818223        0.6396807150        9.5539202587
  H         5.2318031403        1.2907290382       10.3669554881
  C         6.2741786700        2.4883658416        8.3408550655
  H         4.3102352612        2.0076979377        7.4318950510
  H         5.1947449906        0.5930236783        7.6818043715
  C         7.5397297072        1.7797120427        8.7757017238
  H         6.4854713013        2.8795072373        7.3116663289
  H         6.0486902696        3.3924139977        8.9299730016
  C         8.7764905483        2.7037669632        8.9368403982
  H         7.8236965138        1.0296851681        7.9352329941
  H         7.4453313838        1.1981181395        9.6817137093
  C         8.4806229619        4.0819770031        9.6643093640
  C         9.2203108870        3.4312107118        7.7376437020
  C         9.9085388897        1.8413943448        9.6896375512
  C         8.7058990159        5.1411898843        8.8592275110
  C         7.9253501052        4.4491627535       10.8676352345
  C         9.1784117794        4.7321683625        7.5995519654
  C         9.7065145148        2.7385971814        6.6254298792
  H         9.6269703744        1.6163610503       10.6996995139
  H        10.1745012314        0.9675162453        9.1475794342
  C        11.2347053342        2.6002942483        9.7920164223
  S         8.3852958954        6.6469936058        9.6632875571
  C         8.0239240363        5.8416118857       11.0992538168
  H         7.5310982742        3.6581096751       11.5507205858
  C         9.5328303604        5.3395752309        6.4759011902
  H         9.6681417999        1.6388347049        6.6415577545
  C        10.1265833920        3.3559059703        5.4734945082
  H        11.1388889003        3.6512496205       10.0909488675
  H        11.6052962810        2.6589843847        8.8143757209
  C        12.2610424169        1.9383161958       10.8474644705
  C         7.6432933389        6.5261878286       12.4240595908
  C        10.1020569027        4.6993774073        5.4019607498
  H         9.4261851830        6.4718156083        6.4448167645
  C        10.5649872327        2.9726150502        4.2610428189
  H        13.3606051574        2.1613282521       10.7094580199
  H        12.1356727725        0.8875620296       10.7858672381
  C        11.9496290459        2.4077281153       12.2540645847
  C         7.7050336229        7.9357694764       12.7124683997
  C         7.2424779668        5.7070464643       13.5830226028
  C        10.6011538315        5.4039992872        4.1074803436
  C        10.8724223243        4.0385408555        3.4499691225
  S        10.9199045866        1.4059892147        3.5671867416
  H        12.4983433020        3.3007827293       12.4609212521
  H        10.9134656993        2.5939067039       12.4107409980
  C        12.2938909851        1.5194853669       13.5421603348
  N         7.9315778247        9.0173830108       11.7933435135
  C         7.3727796460        8.4458554408       13.9673333773
  C         6.9891876512        6.2236741074       14.8343942312
  H         7.3081896095        4.6009251331       13.4979686384
  C        11.8992358925        6.1755008651        4.3822766999
  C         9.4866815620        6.2265289082        3.3419691211
  C        11.3588752198        3.5723764956        2.1973776493
  C        11.4050951294        2.2128542032        2.0983308903
  H        13.1844717026        1.0132033613       13.2871156253
  H        11.5311417673        0.7387521271       13.6997991039
  C        12.2437570465        2.4595905280       14.7131530366
  S         7.7571151836       10.4594106911       12.6119479422
  N         7.3705093823        9.7996813506       14.0607886247
  C         7.0446213222        7.6697780729       15.0556951622
  H         6.7568221402        5.6272055927       15.6881010485
  H        11.5843214506        7.0364472083        5.0109389617
  H        12.0503207808        6.5885327122        3.3417188287
  C        13.1241053689        5.3936549449        4.8486753948
  H         9.0658071291        7.0161125164        3.9792662629
  H         9.9374170153        6.7266613103        2.4349073036
  C         8.3691240915        5.4693782038        2.6495522200
  H        11.7183790560        4.2643222377        1.4915769392
  C        11.7171148738        1.4643359206        0.8219790969
  H        13.0476179906        3.1508458351       14.6736147082
  H        11.4024472168        3.0748277339       14.7493993482
  C        12.2239960768        1.6419873708       16.0151795468
  C         6.8254967920        8.3748280273       16.2319411050
  H        12.9569956427        4.7948724607        5.7818483352
  H        13.3551397618        4.6303975924        4.1158180162
  C        14.3975621299        6.1810793011        4.9285577984
  H         7.8721539896        4.9252194806        3.4408063123
  H         8.7156557739        4.6794606608        1.9907715872
  C         7.3124455400        6.2990948480        1.8240584427
  C        11.6599351660        0.0906301350        0.6299806591
  C        12.1197818823        2.2242290281       -0.3770368602
  H        12.8806108407        0.7504451061       15.7675073365
  H        11.2091222246        1.2473741855       16.0884595447
  C        12.7754495857        2.1249191636       17.2842016031
  H         7.1263171694        9.3311840437       16.2340564289
  C         6.4216601245        7.9598702617       17.5122973451
  H        14.2747691096        7.0737628838        5.5735019539
  H        14.6499093986        6.4488704225        3.9620298856
  C        15.6896352917        5.4030542187        5.4186481668
  H         7.1434659537        7.2384567690        2.3461664542
  H         7.8378319202        6.5979056178        0.9343436519
  C         6.0777481375        5.4457372423        1.5317054944
  N        11.3679951594       -0.8467897110        1.5951020346
  C        11.9183197423       -0.4794751975       -0.6134259925
  C        12.2456143226        1.6807495281       -1.6143876907
  H        12.1586776048        3.2599274314       -0.4248798616
  H        12.0048866268        2.6134975633       17.8324899424
  H        13.6566466816        2.6209131407       17.2428950589
  H        13.0099601603        1.2537739989       17.8345975613
  S         6.1247148691        6.3647548283       18.0243914644
  C         6.5454444705        8.9731345410       18.6553139894
  H        15.4180626015        4.4149536535        5.6837020678
  H        16.4096712620        5.4151914805        4.6212193973
  C        16.1276176520        5.9364163574        6.7605573101
  H         5.7730417351        4.8438733329        2.4047372207
  H         6.3266755958        4.7887869355        0.6743875079
  C         4.7487444672        6.1925668416        1.2324157187
  S        11.4394447930       -2.2720481432        0.8501283756
  N        11.9757800599       -1.8547453209       -0.5524226355
  C        12.2016222078        0.2437698380       -1.7797641490
  H        12.5796561605        2.3150647272       -2.4421789771
  C         6.1748992004        7.0420463077       19.6522039914
  N         6.2893163275        8.3648827027       19.7815155330
  O         6.8528797860       10.1808684291       18.4459498680
  H        16.5023001095        6.9566158666        6.6553592154
  H        15.2577761520        5.8947700100        7.4077652242
  C        17.2849834658        5.0693438332        7.3086861187
  H         4.6065791106        6.5918707477        0.2484832763
  H         4.0090743514        5.4182452109        1.3075375250
  C         4.3471272220        7.2873688215        2.3623664327
  C        12.5589387860       -0.4386355548       -2.9620530654
  S         5.5993779074        6.1613680167       21.1170476647
  C         6.3473648741        9.0649343959       21.0348037961
  H        17.2323797430        4.8626880802        8.3808275707
  H        17.4105743390        4.1281737938        6.8389557956
  C        18.5805380144        5.7815702421        7.1905961415
  H         5.0121327741        7.1694094221        3.2644688649
  H         3.2700410738        7.2426147720        2.6993025839
  C         4.5604839470        8.6494664522        1.7838330303
  H        12.1943214382       -1.4520161938       -3.0197038861
  C        13.1840621517       -0.0564122036       -4.1648750774
  H         5.9174884730        8.4850133789       21.8207234326
  H         5.6571380590        9.8965455278       20.9915557734
  C         7.7144282277        9.4284238687       21.5210943852
  H        19.3316363624        5.2407542649        7.7912709725
  H        18.4443599959        6.8004766509        7.5625647208
  C        19.0933763966        5.9033216553        5.7545318141
  H         4.8252968058        9.2898373074        2.6521336477
  H         5.3352932019        8.6612966501        1.0759713862
  C         3.3264846060        9.1548405184        1.0474730553
  S        13.8474557349        1.4966429517       -4.5750760643
  C        13.2680237640       -1.0488236674       -5.2826940416
  H         8.0670909271       10.3841860792       21.0734478645
  H         8.4580143977        8.6951139786       21.3293427869
  H         7.6749594342        9.6237541162       22.5729233091
  H        19.0878292436        4.8636985272        5.3492657630
  H        18.4235440514        6.5215649319        5.2169255077
  H        20.1407604342        6.2382755041        5.7763992477
  H         3.6038335973       10.0060263702        0.4230690606
  H         3.0764629280        8.2931878628        0.4199587652
  H         2.4977707614        9.4834648431        1.7157783897
  C        14.3076162729        0.8140039028       -6.1284796659
  N        13.8553281538       -0.4709477331       -6.3097059576
  O        12.9623463279       -2.2365576830       -5.2568011068
  S        15.2988984461        1.6648078599       -7.4385283144
  C        14.1906356668       -1.2295547337       -7.5194011411
  H        14.7864792383       -2.1030662001       -7.1944290640
  H        14.8199046527       -0.6889554949       -8.1824570683
  C        12.9145575383       -1.5939316430       -8.3350967274
  H        11.9849002493       -1.4458473146       -7.8533601687
  H        12.9439036924       -2.6196739350       -8.6957194904
  H        12.8920710149       -1.0543941934       -9.2546983999
  H        -0.5850704774       14.3798140248       16.2039194254
  C        -1.5583524184       14.1833730109       16.7009943825
  H        -1.8043375407       15.1417928643       17.1622379495
  C        -1.4380671759       13.1329703685       17.8857986412
  C        -2.6232943208       13.6983370541       15.6662741589
  C        -2.5485893544       13.3278791817       18.8992368911
  H        -1.7499197922       12.1948390794       17.4550296098
  H        -0.5368074016       13.1845855632       18.3575849466
  H        -3.1972197774       14.5502202608       15.3154185836
  H        -2.1380052798       13.3649330916       14.7248794235
  H        -3.2328441623       12.9554854902       16.1239190950
  C        -2.2863467262       12.4738016042       20.1615016073
  H        -3.5339741601       13.0370058803       18.4554660698
  H        -2.5510007466       14.4178485533       19.1663339830
  C        -2.4556721022       13.2782993566       21.4210726363
  H        -2.9499159843       11.5877414032       20.1979002717
  H        -1.2588073555       12.0408748191       20.1528138848
  C        -1.5021700482       12.6952084454       22.5386525190
  H        -3.4301620369       13.2830638912       21.8469369094
  H        -2.2719787257       14.3199204358       21.1998226547
  C        -0.1676074102       13.4288091649       22.5473977529
  H        -1.9987869660       12.8172712365       23.5171295154
  H        -1.4505500851       11.6077294439       22.4105819021
  C         0.9326822570       12.8821381880       23.4197396532
  H         0.1654940552       13.6703488748       21.5352767862
  H        -0.2407536442       14.4825808509       22.8406389347
  C         1.3946548736       11.5922091684       22.7956951046
  C         0.5172831785       12.1950031990       24.6468903582
  C         2.1050724940       13.9415437321       23.5546866183
  C         1.2138265437       10.4435443379       23.5654731091
  C         1.7530458121       11.1865057756       21.5181194048
  C         0.6995243453       10.8591912857       24.7862378062
  C         0.1011220827       12.8395899186       25.8019568306
  H         2.2279030817       14.4045820442       22.5744450774
  H         1.7756406281       14.7595421802       24.2986884846
  C         3.4970092561       13.3054867653       23.9972836034
  S         1.5951542509        8.9417236535       22.9073498944
  C         1.9997476020        9.8138370432       21.4922807872
  H         1.8769638940       11.8979734869       20.7605235579
  C         0.3438617159       10.2713298214       25.9939586590
  H         0.0265258385       13.9015110862       25.7976715656
  C        -0.2248391406       12.2539236007       26.9842513778
  H         3.8367781709       12.4699069862       23.3528031757
  H         3.2521169195       12.8367943928       24.9602998292
  C         4.6515372102       14.2404048058       24.3515799561
  C         2.2951553995        9.0299471535       20.1636783948
  C        -0.1354841590       10.9038157996       27.1569974304
  H         0.3219608696        9.1720870936       26.0789105789
  C        -0.5919546046       12.6814110562       28.1904701797
  H         5.4746346856       13.7185906852       24.8480382823
  H         4.3849131460       14.9543449543       25.1435445501
  C         5.3195517293       15.0016091047       23.1781282571
  C         2.2920467172        7.6133703485       19.8624248272
  C         2.6309708338        9.8398530319       18.9647949327
  C        -0.5448179604       10.2443452657       28.4740578297
  C        -0.8601621274       11.5967583578       29.0953583769
  S        -0.8037553772       14.2151909173       28.8563606141
  H         5.9300122880       15.7416067589       23.6428342841
  H         4.6449437755       15.5782486642       22.5863812679
  C         6.0721735754       13.9104119099       22.3428611255
  N         1.8844677728        6.6651150481       20.7860781211
  C         2.5782185140        7.0607469392       18.6277026140
  C         2.9339569131        9.3165045646       17.7023575475
  H         2.7393090809       10.9288760786       19.0440386303
  C         0.5440576040        9.4155081581       29.1489008996
  C        -1.9039606385        9.5008560186       28.4256499277
  C        -1.3132904878       12.0095781735       30.3038505003
  C        -1.3118121992       13.3912940335       30.3194999331
  H         7.0854223641       14.0520050567       22.4747099713
  H         5.8928936327       12.8875943319       22.7628010413
  C         5.6071200122       13.9667675953       20.8444388184
  S         1.9903887683        5.1778343076       20.0618263815
  N         2.4504306578        5.6900504814       18.5235881837
  C         3.0161505063        7.8559889093       17.4735547580
  H         3.1709439189        9.9971836329       16.8684526113
  H         0.7933282072        8.6731348817       28.4614296366
  H         0.2478749772        8.9712128250       30.0503678473
  C         1.8344138393       10.1918089002       29.4758665746
  H        -1.7790611298        8.5481412365       27.9256832596
  H        -2.2248269999        9.3639474735       29.4971911527
  C        -3.0344670171       10.1644822714       27.6863059826
  H        -1.3250332508       11.2535954956       31.1061904253
  C        -1.6450388005       14.1554726012       31.5948060354
  H         5.8314738593       14.8832870751       20.3833427647
  H         4.5794036003       13.7788137302       20.8036476755
  C         6.3315946353       12.8709940126       20.0607869214
  C         3.2872832437        7.1957758968       16.2406741560
  H         2.1222976429       10.8750563459       28.7043170718
  H         1.7517496482       10.8176467024       30.3547350124
  C         2.9024754678        9.1328816774       29.7690875262
  H        -2.7655008394       10.6835217678       26.7346778666
  H        -3.2465808446       11.0130657449       28.3287712059
  C        -4.2339110203        9.2986760096       27.3411863468
  C        -1.7863018448       15.5574231414       31.8162758465
  C        -1.8423023588       13.3963364424       32.8922009164
  H         6.1819549523       11.9096706623       20.5492706075
  H         5.7306066281       12.7688285594       19.1741352553
  C         7.7436753089       13.2904996874       19.6321886041
  H         3.4881412905        6.1913709753       16.2863441862
  C         3.6558014788        7.6347968773       14.9631167337
  H         3.2584230437        8.5733531674       28.8501543648
  H         2.4609877668        8.4608672600       30.4958179562
  C         4.1401142513        9.6855709379       30.4036578083
  H        -3.9885980494        8.4767290688       26.6687729175
  H        -4.5463693576        8.6992964855       28.2572959225
  C        -5.4229362876       10.0709120633       26.8790960044
  N        -1.6005189115       16.4331854641       30.7556558729
  C        -2.0200170143       16.1934522623       33.0550962833
  C        -2.0851016459       14.0152825812       34.1060245435
  H        -1.8871615395       12.3322694372       32.8660942091
  H         7.8716041163       14.0948336750       18.9594743051
  H         8.2733500052       13.5786125869       20.5519497718
  H         8.1720777053       12.3995132668       19.2553559986
  S         3.5731727958        9.3414136972       14.4571245047
  C         3.8617256334        6.6142935851       13.8886312034
  H         4.5165475666       10.2504790321       29.6267095203
  H         3.8658358854       10.2257850310       31.3288434220
  C         5.3541390190        8.7086581486       30.5582718843
  H        -5.0682400371       10.9061058110       26.2140428153
  H        -5.8207593149       10.7717578043       27.6419602950
  C        -6.5472293989        9.3358920176       26.1883297115
  S        -1.5141824140       17.9314398019       31.4076029567
  N        -1.9434199391       17.6006134907       32.9731403983
  C        -2.0839694151       15.4851399699       34.2214208801
  H        -2.2624229661       13.4236876947       34.9803393469
  C         4.0589814622        8.6945411909       12.8833647924
  N         4.1548495416        7.3683881678       12.7393849922
  O         3.6488972307        5.4217210092       13.9942259976
  H         6.3025602340        9.3143950665       30.5957214992
  H         5.5018435051        8.0378316056       29.7366279549
  C         5.3248427236        7.8474160754       31.8857932750
  H        -6.1237363441        8.6211244879       25.4837707710
  H        -7.0042710422        8.7046066706       26.9714953052
  C        -7.4693213422       10.3273540597       25.3125734158
  C        -2.4079206436       16.1888988471       35.4429819539
  S         4.2817948118        9.6456432915       11.4324859535
  C         4.3531690002        6.7038249478       11.4598586884
  H         5.2567626451        8.4904362043       32.7039233144
  H         4.3145178484        7.4136085885       31.9592407183
  C         6.4326125229        6.7278586603       31.9267098774
  H        -6.9765872897       10.4857060855       24.2713532930
  H        -7.5092259702       11.3632412351       25.6935632121
  C        -8.8841617652        9.8215410887       25.1714065379
  H        -2.2735942808       17.2694586981       35.3526613828
  C        -2.9037501835       15.8397648359       36.6389366365
  H         5.1417196382        7.1142453004       10.8543165139
  H         4.7745315687        5.7318427581       11.7308539895
  C         3.0585619523        6.3505579102       10.7356300839
  H         6.8391463369        6.4421936757       32.9398013311
  H         7.3120092899        7.0622555333       31.3659060989
  C         5.9396754305        5.4885811642       31.1876906766
  H        -9.4954718881       10.3450208474       24.4782414082
  H        -8.8671925182        8.8026253032       24.9122867063
  C        -9.5563212656        9.7088477964       26.4965519477
  S        -3.3953858934       14.2541736450       37.0974312919
  C        -2.9856872528       16.8837780293       37.6521234414
  H         3.1937571652        6.4361856797        9.6761546599
  H         2.8057569431        5.3348039039       11.0028004294
  H         2.2361033125        7.0053506813       11.1059423500
  H         6.2033705092        4.6240717552       31.7315732965
  H         6.2933200786        5.4564260709       30.1667200424
  H         4.8689972515        5.7003910417       31.0949161247
  H        -9.1132139307       10.2936072819       27.2654517028
  H        -9.6062543548        8.6486384350       26.7039746166
  H       -10.5799343116       10.1296659854       26.3986043472
  C        -3.8787230280       15.1081837419       38.5967943910
  N        -3.5398652862       16.4026846786       38.7011444251
  O        -2.5576231173       18.0002528986       37.4642740590
  S        -4.6294434875       14.3830922178       40.0333020054
  C        -3.7805824922       17.1410726115       39.9230626792
  H        -4.0269332206       18.2130061708       39.6462225011
  H        -4.5579630881       16.7598397942       40.6368335530
  C        -2.5209434643       17.1887503834       40.7434513766
  H        -1.5369393655       17.1630232093       40.2389288289
  H        -2.4823618776       17.9968423759       41.4887741885
  H        -2.5410863987       16.2105545402       41.3326885893
