352
i=
  H         4.2533539117        2.1200112634       12.7124393195
  C         3.4855554677        2.8644046829       12.6100579311
  H         3.9205363606        3.8646449318       12.6655876161
  C         2.6941396237        2.7071633696       11.3880133953
  C         2.7515494164        2.6305363685       13.9257521123
  C         3.4498799457        2.8753095719       10.0600661490
  H         1.9599190890        3.4398027080       11.4351569672
  H         2.2475156848        1.7214237381       11.3899501740
  H         2.4504094315        1.5983691452       14.0980937820
  H         1.8758714472        3.2288547066       13.9475122680
  H         3.3700851705        2.9471810850       14.8414839036
  C         4.3815232265        1.6774681757        9.8584816054
  H         2.8157658758        2.9515604106        9.1890027338
  H         4.0202587212        3.7786612109       10.1808362871
  C         5.3920407473        1.8832458629        8.7156546692
  H         3.7383211464        0.8506664029        9.5612987876
  H         4.8575792475        1.3437724453       10.7975285019
  C         6.5032495516        2.8699729277        9.1187143503
  H         4.9070354638        2.2866278075        7.8276888444
  H         5.6842417905        0.8789895788        8.4508722039
  C         7.9392742488        2.1496973799        9.0459074504
  H         6.6498969032        3.7406212513        8.4701354654
  H         6.1487315941        3.2687124083       10.0890656352
  C         9.1217215171        3.1389985940        9.2878230181
  H         8.1752742960        1.6412195796        8.1031447253
  H         7.9567028416        1.2748924358        9.7394153301
  C         8.7427889850        4.4579769656        9.8741797568
  C         9.6318943704        3.8385787682        7.9895965117
  C        10.3436047929        2.4622127290       10.0693992694
  C         8.9641166383        5.5397029096        9.0358845393
  C         8.1042715135        4.8031646742       11.0628794570
  C         9.5476345678        5.0993268133        7.8546056269
  C        10.2323014962        3.2046796964        6.9060068927
  H        10.0020964240        2.2049076238       11.0608188354
  H        10.6838899886        1.6205907108        9.5219811651
  C        11.5654955587        3.3144796075       10.4241935302
  S         8.3345175162        7.0434398964        9.6237838615
  C         8.0654857938        6.1602461975       11.1488685352
  H         8.0817173406        3.9932149638       11.8816994866
  C         9.8874821834        5.7390830560        6.6945529879
  H        10.2204400966        2.1038676062        6.8893816990
  C        10.5682677263        3.8506257066        5.7246587810
  H        11.2294130561        4.2938743990       10.7888345918
  H        12.1136141384        3.6432053402        9.5114523111
  C        12.4995515609        2.7450527452       11.4526650558
  C         7.6576871856        6.8720514766       12.3978326399
  C        10.3728103840        5.1686349582        5.5566794907
  H         9.6567372003        6.8091050911        6.6592982677
  C        10.9826506289        3.4338482927        4.4482177977
  H        13.5911718877        3.0754820758       11.3258159281
  H        12.4852484858        1.6378658018       11.2024670493
  C        12.0788075157        3.1057777920       12.8510612692
  C         7.6392649925        8.2597508080       12.6786730031
  C         7.1061494433        6.0996120983       13.4887107607
  C        10.8285653334        5.8204074402        4.2807867760
  C        11.1736215882        4.5069937298        3.6029895585
  S        11.3424463114        1.9103183735        3.7744177850
  H        12.3685427908        4.1177677491       12.9433604735
  H        10.9455822978        3.1180676962       12.9060511856
  C        12.6391725127        2.2306790111       13.9467795054
  N         7.9220666397        9.2776540003       11.7693910205
  C         7.3034275861        8.8262851323       13.8789523660
  C         6.8624945232        6.6358760934       14.7233282261
  H         7.0191430308        5.0162711887       13.3768972096
  C        12.0478371212        6.7550526913        4.4342114569
  C         9.6051133334        6.4569471783        3.6173033686
  C        11.4047674816        4.0852594155        2.3299104347
  C        11.4991383533        2.7057929100        2.2422398278
  H        13.7068517701        2.5635043002       14.0966350920
  H        12.6678409361        1.2190688624       13.5152312111
  C        11.9941824960        2.2024468653       15.3242174096
  S         7.7217171489       10.7459329985       12.4714577126
  N         7.2485307736       10.2470216443       13.9523460000
  C         6.9102346838        8.0561391222       14.9878422063
  H         6.4663653879        5.9611459467       15.5054829788
  H        11.7788223128        7.4595209396        5.2627390410
  H        12.2485621013        7.3727477439        3.5747637630
  C        13.3183140850        5.9366620701        4.8612490832
  H         9.2456455254        7.3358294224        4.2232310985
  H         9.9510519617        6.8110048228        2.6583549365
  C         8.3608162994        5.6671603605        3.2421386778
  H        11.4943840895        4.8283514697        1.5352135371
  C        11.6976219686        1.9666510137        0.9504197361
  H        11.7097421709        3.1861484036       15.6052495232
  H        11.1101352853        1.5999197873       15.5335111304
  C        12.9830102269        1.9122089213       16.4662061083
  C         6.6836844213        8.7438510055       16.1923165680
  H        13.2216427497        5.4168108531        5.7681969658
  H        13.6500507168        5.2881506466        4.0376675317
  C        14.4874544122        6.9580268053        5.0731412164
  H         8.0896912652        5.1597021700        4.1253940325
  H         8.5384472293        4.9429284395        2.5287546259
  C         7.3523529728        6.7151933151        2.7403728771
  C        11.6418854583        0.5527425025        0.7780362676
  C        11.8535792845        2.7781863376       -0.2731820641
  H        13.8881421053        1.4197148445       16.1139745808
  H        12.6132128465        1.2908005052       17.3043090096
  C        13.2169860193        3.1829813352       17.2667503732
  H         6.8089341418        9.7835388309       16.1891807466
  C         6.3818497436        8.3140302695       17.4972907304
  H        14.1557918456        7.5888862692        5.8213157200
  H        14.6716610006        7.6635874058        4.2799291103
  C        15.8576470053        6.2896575935        5.4078475096
  H         6.9998940304        7.1548401567        3.6153322476
  H         7.8377435534        7.4487448752        2.1588548347
  C         6.1036643491        6.0373313048        2.1781634759
  N        11.4089398588       -0.3925983285        1.7539564450
  C        11.7472040396       -0.0213460753       -0.4742762790
  C        12.0358243123        2.1111338408       -1.5067604511
  H        11.7044862885        3.8407333159       -0.3254019009
  H        13.9846800251        3.7702748739       16.9076108524
  H        13.3241898582        2.9381784121       18.3025490573
  H        12.3086376597        3.8638852205       17.4593364534
  S         6.0643702872        6.6788192020       17.9546911701
  C         6.6095660882        9.2742693186       18.6008252484
  H        16.0367192159        5.4821734135        4.7122232570
  H        16.5939941143        7.0322957815        5.1677461412
  C        16.0795710174        5.6495793257        6.7892697444
  H         5.7046482004        5.4931716598        3.0770017633
  H         6.2620207258        5.1162768094        1.5631444420
  C         5.0770447808        6.9973304211        1.4407174599
  S        11.6255350974       -1.8352309958        1.1917193748
  N        11.7102406764       -1.4234502082       -0.4005386930
  C        12.1931064247        0.6141440744       -1.6711205037
  H        12.0430631590        2.7852395324       -2.3508148595
  C         6.0616856259        7.2814239351       19.5373191384
  N         6.1775604879        8.6698737432       19.6540132600
  O         6.6890770912       10.4988858905       18.5331261264
  H        15.6708920420        6.3553886670        7.5341454713
  H        15.4587239891        4.7491687398        6.6867291124
  C        17.4611982095        5.1039230622        7.0646677269
  H         5.4445147360        7.3619577704        0.5289307149
  H         4.2488629243        6.3859868999        1.1710781170
  C         4.9435045889        8.2686028267        2.3072297107
  C        12.5223669277       -0.1096062593       -2.8100720099
  S         5.5685136765        6.3102650372       20.9689008539
  C         6.1895467120        9.2757194341       20.9755265745
  H        17.4014694633        4.6854960311        8.0801840028
  H        17.7803898833        4.2469383372        6.4778188632
  C        18.5577253841        6.2234362244        7.0689643441
  H         5.8038185224        8.8987033774        2.3907460227
  H         4.7857182557        7.9033250705        3.3844687434
  C         3.8231760611        9.2356530282        1.8150657097
  H        12.2748939717       -1.2317385892       -2.7291379759
  C        13.0386242643        0.3241406250       -4.0178222279
  H         5.2033116472        9.0321052071       21.4832466188
  H         6.0293752494       10.3264790714       20.9597492186
  C         7.4105799549        8.8925608402       21.8965410003
  H        18.1870431263        7.0835183565        7.6172825518
  H        18.6911887648        6.6518563816        6.1008447754
  C        19.8819187009        5.8525778811        7.5915804283
  H         2.9457624370        8.8679148783        1.3535110422
  H         3.6554758698        9.9186871637        2.7190042096
  C         4.5420465530       10.1015667335        0.7989570306
  S        13.5239943724        1.8771349018       -4.4171474330
  C        13.1602211917       -0.7263294328       -5.0459377834
  H         7.1388865903        8.2886467890       22.8156297960
  H         7.8720059520        9.8237520706       22.2091723814
  H         8.1617767654        8.3110051006       21.3685817055
  H        20.6032924542        6.6378354549        7.4816903698
  H        19.8608670423        5.8225239204        8.7065098822
  H        20.4776344212        5.0014481360        7.1195802406
  H         3.8946321464       10.9360469508        0.3828620624
  H         5.4058485075       10.6099158554        1.2804349210
  H         4.9478827212        9.6871779390       -0.1200939350
  C        14.0234571775        1.1609940140       -5.9854043617
  N        13.8338391208       -0.1958310447       -6.0777234705
  O        12.6387259979       -1.8655329708       -5.1135129974
  S        14.7240165622        1.9830924252       -7.3434388767
  C        14.0626480319       -1.0342217052       -7.3064307824
  H        14.1363867453       -2.0564096411       -6.9379418284
  H        15.1256846859       -1.0156126078       -7.6772730418
  C        13.0141134176       -0.8677666043       -8.3904071677
  H        12.3549691417        0.0216810513       -8.1652528653
  H        12.4277059428       -1.7138667753       -8.5460645150
  H        13.4117608316       -0.5754263159       -9.4192847085
  H        -2.5926728833       15.5319956514       16.1479983883
  C        -2.7840635610       14.5543695097       16.4801679656
  H        -3.7910721303       14.5915999786       16.8068139290
  C        -1.9407715917       14.3205837939       17.7062535176
  C        -2.7214606580       13.4972106629       15.5069936023
  C        -2.7667126479       14.0599978033       18.9565560636
  H        -1.2848560248       13.4464570662       17.5124096006
  H        -1.3147315192       15.1562844773       17.9360521313
  H        -3.4754773571       13.5427713049       14.6997914125
  H        -1.7559450257       13.5001373387       14.9925981325
  H        -2.9604096944       12.6024604745       15.9952118232
  C        -1.9791436357       13.2801418018       19.9487644506
  H        -3.6538399374       13.4322875190       18.7581190105
  H        -3.1429523711       14.9768718696       19.3726394293
  C        -2.6014352315       13.5617296209       21.3443738759
  H        -1.8706615305       12.2761019825       19.6000529402
  H        -1.0122359279       13.7209964990       19.9377135385
  C        -1.5924945732       13.0345624921       22.4197895363
  H        -3.4419823727       12.9994345493       21.3704023565
  H        -2.8323151763       14.6620118226       21.5481856762
  C        -0.3459769474       13.9249390081       22.5735863283
  H        -2.2289520208       13.0681246397       23.3096701118
  H        -1.3253500783       12.0121215965       22.2953414609
  C         0.8300807198       13.1888827666       23.2011897471
  H        -0.1414849494       14.4127570124       21.7059390057
  H        -0.6134489962       14.6908412930       23.2903065674
  C         1.1709932692       11.8200151254       22.5541838651
  C         0.3226696789       12.4595483815       24.4790468319
  C         2.0491221584       14.0372006575       23.5928062514
  C         0.9260931394       10.7527093654       23.3459307455
  C         1.7250572627       11.5837908177       21.2744296814
  C         0.4501154320       11.1148795462       24.6042170155
  C        -0.1708438905       13.0483512631       25.6555113118
  H         2.2825376730       14.9000112830       22.8967761560
  H         1.8072395733       14.5330772434       24.5207626490
  C         3.2384924589       13.1923622792       23.8515055577
  S         1.5218268682        9.2780735715       22.6082242345
  C         1.9782456002       10.2265144444       21.1644301586
  H         2.0076825919       12.3669973543       20.5612867860
  C         0.1889650668       10.4908798019       25.7658119418
  H        -0.1585274135       14.1399081595       25.6654587050
  C        -0.5062475561       12.3699858800       26.7566842959
  H         3.4960720597       12.5685186200       23.0376298346
  H         2.9191385013       12.4441743553       24.5938297088
  C         4.4774471733       13.8049718791       24.4163651475
  C         2.4911276259        9.5757781453       19.9155617779
  C        -0.3480656288       11.0278210445       26.8590670508
  H         0.1427730366        9.3385820196       25.8464931884
  C        -0.9678275874       12.7791364332       27.9446656883
  H         4.8583878713       13.0088052738       25.1943426440
  H         4.1763650472       14.6963964644       24.9509774086
  C         5.5322581743       14.3107784281       23.4348122860
  C         2.4487143600        8.2124028701       19.6513799419
  C         3.0414078532       10.4472476974       18.8684668503
  C        -0.8458705622       10.3562337826       28.1037399599
  C        -1.2226313500       11.6644161892       28.6795859908
  S        -1.2305640562       14.2680810712       28.7646800438
  H         6.2912843725       14.9208854202       23.8398570837
  H         5.0612545462       15.1451300950       22.7971767456
  C         6.2453111074       13.3679385621       22.5315739491
  N         1.9768122869        7.2369445065       20.5624022453
  C         2.6984277443        7.6418384951       18.4239596073
  C         3.1699320452        9.8778715841       17.6116229103
  H         3.1547631925       11.5420282818       18.8732373224
  C         0.1474227828        9.5011165745       28.9991455953
  C        -2.1416983266        9.5199657767       27.9136800497
  C        -1.5840186868       12.0550275202       29.9727843903
  C        -1.6124676814       13.4243546703       30.1812324351
  H         7.3472655998       13.4831192447       22.6763742504
  H         5.9688869964       12.2785089302       22.8309316683
  C         6.0412448268       13.7200179525       21.0819149140
  S         2.2561806372        5.7856295785       19.9932660449
  N         2.6478650002        6.2397203273       18.4097952606
  C         3.0793138969        8.4223356959       17.2690159340
  H         3.3568976384       10.7057378539       16.8603422790
  H         0.2212881091        8.5181260143       28.6368916399
  H        -0.4224226852        9.4568210253       29.9801067841
  C         1.5174256386       10.2057511458       29.2683118255
  H        -1.9611855695        8.5918380411       27.3343275749
  H        -2.5220012978        9.3017973329       28.9430823116
  C        -3.1146388373       10.3722498375       26.9530830429
  H        -1.6804586355       11.4445890413       30.7803545002
  C        -1.9102045713       14.1586828683       31.5045763796
  H         5.7204418713       14.6904446194       20.9161143538
  H         5.1369638973       13.2571061567       20.7081595030
  C         7.3587900223       13.5851089022       20.2117592824
  C         3.2960508298        7.8127490140       15.9966410543
  H         2.0001374661       10.4647335684       28.3425919292
  H         1.2955161680       11.1618164117       29.8053762577
  C         2.5349307057        9.2093071844       29.8372074136
  H        -2.7142318684       10.4403175665       25.9312665447
  H        -3.4249698989       11.3387544878       27.2666301344
  C        -4.4634519816        9.7210622149       26.9800002602
  C        -1.9337867600       15.5740932865       31.6191051011
  C        -2.1009782178       13.4186620442       32.7805766358
  H         7.9044957284       14.4867311672       20.5829670073
  H         7.9484689113       12.6422593860       20.3202047703
  C         7.0979770184       13.8702064002       18.7148100533
  H         3.1074149921        6.6784220460       16.0183587878
  C         3.7271286631        8.2948258959       14.7905064147
  H         2.8373809461        8.4021878549       29.0907685948
  H         2.2292526796        8.5900379292       30.6750881749
  C         3.8214104971        9.8898353083       30.3700200768
  H        -4.3378637289        8.8055858376       26.3650993657
  H        -4.6235831077        9.3581497463       28.0026638539
  C        -5.4910336377       10.7151289625       26.4285240176
  N        -1.6951029089       16.5244467021       30.6110094350
  C        -2.1986221679       16.1558144724       32.8071451160
  C        -2.3230842607       14.0420090979       33.9693658687
  H        -2.1758247405       12.3118259426       32.8254059658
  H         8.0032727180       13.7130470178       18.0954088149
  H         6.3254171059       13.2516272204       18.3525276405
  H         6.7543885027       14.9495115328       18.5308600585
  S         4.0830350983        9.9088498718       14.3722802533
  C         3.7891564458        7.2791878897       13.6627213757
  H         4.1355390856       10.7004019627       29.7340626433
  H         3.5588312032       10.1627246986       31.3580990642
  C         5.0247606145        8.9220584532       30.4602532553
  H        -5.0306010462       11.5230287663       25.8989546420
  H        -6.0025204752       11.1257047626       27.3489229015
  C        -6.5850960992        9.9718562897       25.6449324184
  S        -1.9491629976       18.0375499322       31.1979488400
  N        -2.2509667734       17.5907183583       32.7217765076
  C        -2.4052816394       15.5381580645       34.0402955092
  H        -2.3962320622       13.5690746771       34.9351460374
  C         4.1396223005        9.2744107692       12.6800912868
  N         4.1780440545        7.8931170205       12.5380717702
  O         3.5584742914        6.1220353333       13.7643707151
  H         5.9221350068        9.4681195870       30.7829612774
  H         5.2034988244        8.5080237503       29.5271794935
  C         4.8244735178        7.7088276113       31.3763492219
  H        -6.1539462299        9.3591459045       24.8195971895
  H        -7.0583235203        9.2575720121       26.3241500191
  C        -7.6106201923       10.8879714998       24.9797359862
  C        -2.7670078128       16.3150056550       35.1921722720
  S         4.5709427476       10.2693521923       11.2460615175
  C         4.2305185101        7.1341147573       11.2871701171
  H         4.5482758132        8.0920416108       32.3353892883
  H         4.0317064074        7.0461638083       30.9583771489
  C         6.0841992033        6.7536638046       31.5536037618
  H        -7.2414593703       11.4101170100       24.1212970928
  H        -7.7986488954       11.6923238264       25.7647236837
  C        -8.9297120531       10.2478558260       24.5559891463
  H        -2.4530586021       17.3726903208       35.1258117806
  C        -3.4026872998       16.0788757682       36.3950517805
  H         4.8445853206        7.5574809873       10.5236314172
  H         4.6755693132        6.1256494622       11.4827171319
  C         2.7998797018        6.9398435820       10.7607616691
  H         5.8654499836        6.0121422736       32.3212033086
  H         6.9125045726        7.2441972383       32.0746390476
  C         6.4128950010        5.8811012439       30.3629187722
  H        -9.4540225457       10.8193450765       23.7637761050
  H        -8.7440242708        9.2885970695       24.1932315161
  C       -10.0524504116       10.2359500670       25.6451448869
  S        -4.1097664005       14.5737746297       36.9315819803
  C        -3.4067858303       17.1719720600       37.4679853593
  H         2.8824430411        6.7475964068        9.7030333593
  H         2.2277444409        6.3788458315       11.4319505912
  H         2.3547544726        7.9180344467       10.8290987508
  H         7.0697078699        5.0510789655       30.6733336309
  H         6.8983753829        6.5465043689       29.6273911099
  H         5.3994713669        5.5709750780       29.9894505339
  H        -9.7910541275       10.0538463240       26.7164727223
  H       -10.8364181570        9.5204472974       25.3726866533
  H       -10.5595284133       11.2215517223       25.6650644355
  C        -4.6117743351       15.4569225561       38.3901914388
  N        -4.0429115540       16.6925919612       38.5084809282
  O        -2.8150011001       18.2916709665       37.4245945744
  S        -4.8574389182       14.5998634517       39.9200806631
  C        -4.0576165046       17.4891577276       39.7748972176
  H        -4.3769103135       18.4939354604       39.6555052872
  H        -4.9077513311       17.1405921092       40.4014335974
  C        -2.8243385782       17.3862282200       40.6696605265
  H        -2.4751329534       18.3109070419       41.2154787633
  H        -2.9755056717       16.6250517640       41.4211836602
  H        -1.9919570466       17.0189447506       40.1530717580
