352
i=
  H         2.5014633682        3.1116665387       12.4411739975
  C         3.2610282947        2.3558794255       12.6923380992
  H         2.6148902219        1.4737182855       12.7318854270
  C         4.3783176930        2.3265904352       11.5897938052
  C         3.8817485905        2.4952581024       14.1023118119
  C         3.6897422344        2.1351632270       10.2590442945
  H         4.9508373525        1.4259287795       11.7329085543
  H         5.0759773624        3.1459856923       11.4295582501
  H         3.6300203561        3.4314162992       14.6396675954
  H         4.9495518959        2.3748282495       13.8590043400
  H         3.5650082468        1.6059237231       14.7257900803
  C         4.4362846918        1.1500734328        9.3528567478
  H         2.6638023265        1.7725287409       10.4782852776
  H         3.6126913603        3.1912676326        9.8449934711
  C         5.1758329642        1.9326240010        8.2247203559
  H         3.7664693610        0.5779856013        8.7962280615
  H         5.0971205987        0.4209667207        9.8029125653
  C         6.2954016909        2.8278762074        8.5767504954
  H         4.4777353296        2.4768605754        7.6900710909
  H         5.5472139875        1.3103063172        7.4340853295
  C         7.5928289968        2.1445071133        9.0646360403
  H         6.5059227073        3.3478692304        7.7183794817
  H         6.0320805100        3.5445714922        9.3258882512
  C         8.8353987571        3.0505360562        9.2489469001
  H         7.8385578873        1.3896705313        8.3539385924
  H         7.4204207943        1.5902265143        9.9261950774
  C         8.5117716736        4.3551634052        9.8702752920
  C         9.3023206049        3.7720518749        8.0153498521
  C         9.9515380469        2.2309746209        9.9546611925
  C         8.6425283134        5.4699735773        9.1004565123
  C         8.1427781445        4.7342681579       11.1941807111
  C         9.1732770018        5.0939631312        7.9006522105
  C         9.8175496618        3.1388593839        6.9022918269
  H         9.6039151955        1.7274536735       10.9309851861
  H        10.2223599347        1.4276167950        9.3221949142
  C        11.1691865624        3.0399341320       10.1800044465
  S         8.4002278343        6.9707946320        9.8984763754
  C         7.9296093951        6.0985708010       11.2942103458
  H         7.7672892438        3.9113004605       11.8436832599
  C         9.6232367295        5.7503531324        6.7509275193
  H         9.8817138889        2.0442747793        6.9460132755
  C        10.2682914484        3.7001196852        5.7822049965
  H        10.8744339047        3.9985046484       10.6154789087
  H        11.6991083970        3.2203475310        9.2795965936
  C        12.2272986316        2.5243151483       11.1652370678
  C         7.5867834751        6.6775021775       12.6303662018
  C        10.1413397942        5.0653038135        5.6441374593
  H         9.4550823568        6.8207377240        6.6953107098
  C        10.8527647476        3.3088871896        4.5895250360
  H        13.1748653726        3.1299186618       11.1634366526
  H        12.6257715481        1.7003420928       10.6672493792
  C        11.7731855452        2.4392734151       12.5457081804
  C         7.5552637946        8.0688682310       12.9252642539
  C         7.3037131002        5.8347560675       13.8209172104
  C        10.6220025132        5.7038402113        4.3754439979
  C        10.9622161863        4.3398049119        3.6886699250
  S        11.2567891290        1.7766941868        3.9615584624
  H        11.2459811380        3.3417283597       12.8014492366
  H        11.1193898062        1.6456866971       12.5760793631
  C        12.9322036758        2.1609938276       13.6143828196
  N         7.6888958629        9.0532600756       11.9506641088
  C         7.3971310688        8.6067535847       14.1689300833
  C         6.9818142511        6.3899393088       15.0948744257
  H         7.3316429923        4.7623397585       13.7378886088
  C        11.9035679298        6.5326047490        4.6677566165
  C         9.4478261510        6.6108708637        3.7416896251
  C        11.4954136604        3.9704066369        2.4497911247
  C        11.5837045290        2.6200460771        2.4651759848
  H        13.7309162635        2.8414037456       13.4934456533
  H        13.3819537298        1.1686523839       13.3670728861
  C        12.3965562455        2.0267693582       15.1091844074
  S         7.8825736773       10.4857993923       12.7145791839
  N         7.6173228559        9.9698948364       14.2002626162
  C         7.0913351459        7.8717392974       15.3006719756
  H         6.8413001938        5.7600449346       15.9641606022
  H        11.7787619570        7.2388131344        5.4870286651
  H        12.1614865490        7.1392393726        3.7795456812
  C        13.2029617449        5.8088526294        5.0105348452
  H         9.1863151604        7.4390278240        4.3678989073
  H         9.8844408730        7.0670673784        2.8499193840
  C         8.1919501581        5.7854243253        3.3485161992
  H        11.6386708421        4.6486960547        1.6044816146
  C        11.8156657175        1.7498994303        1.2507497053
  H        11.9485399461        2.9860751993       15.4284960605
  H        11.4809288094        1.3978100261       15.1858624935
  C        13.4413261913        1.9455416440       16.2072186182
  C         6.8140232037        8.5259292063       16.5790299794
  H        13.0074396322        5.1609360069        5.8728481941
  H        13.3737224731        5.2060623477        4.1485428324
  C        14.4872723344        6.6507812422        5.2072435741
  H         7.9141657727        5.2155473672        4.2101244514
  H         8.5251296678        5.0435345190        2.6254006333
  C         6.9961943419        6.6481685842        2.8303752518
  C        11.8815920267        0.3265147787        1.1906781038
  C        12.1925039911        2.4018159283        0.0049644951
  H        14.3732279828        1.9452102455       15.7309728802
  H        13.4138333539        0.9890938807       16.6682773963
  C        13.3325498071        2.9767435379       17.3476529103
  H         6.8933767738        9.6240619193       16.5665507660
  C         6.5654899398        8.0609643320       17.8627594262
  H        14.2708033608        7.3075182621        6.0621683137
  H        14.5389330254        7.2296651080        4.3099064868
  C        15.7456922874        5.9091123784        5.3418645286
  H         6.6627564154        7.3526937810        3.6257061010
  H         7.3434552943        7.2539436435        2.0624439316
  C         5.8682962127        5.9185096180        2.0966728269
  N        11.6460514845       -0.5219458769        2.1967981933
  C        12.0933460809       -0.3518815602       -0.0223876444
  C        12.4177143336        1.7448744762       -1.1836876658
  H        12.1605218589        3.4687109029       -0.0247802273
  H        12.5199304352        3.7181667950       17.2666356364
  H        14.2697324920        3.3914670316       17.6885690159
  H        13.1968173058        2.3575193974       18.2186925209
  S         6.2723322103        6.3933235742       18.3506082387
  C         6.4959971909        9.0700138997       18.9951538646
  H        15.4785867782        4.8191671252        5.4011042251
  H        16.4232375897        5.9827454545        4.4337940062
  C        16.4955178639        6.3688980903        6.5919848301
  H         5.4719565719        5.1740999428        2.8295566027
  H         6.2801370845        5.4125066573        1.2360069100
  C         4.6551941261        6.7920805639        1.8083194511
  S        11.6228472087       -2.0672577382        1.7100027190
  N        11.9783252318       -1.7389526838        0.1196848807
  C        12.4523672229        0.2561105430       -1.2780713962
  H        12.6793579170        2.3321561964       -2.0849034314
  C         5.9888560190        7.0478806856       19.9062401422
  N         6.1719275423        8.3949569160       20.1091891453
  O         6.5156278507       10.2632792636       18.8213274245
  H        16.8327807598        7.3596116842        6.5183450120
  H        15.7659505703        6.2776307204        7.3639474188
  C        17.6712386326        5.5718376998        7.1260731126
  H         3.7616723657        6.2009692141        1.7370181718
  H         4.5653249059        7.4363752013        2.7174809100
  C         4.9890718710        7.6640633814        0.5355706390
  C        12.5970170064       -0.4643487252       -2.5099886434
  S         5.6178150671        6.0130380769       21.2580021980
  C         6.1766877985        9.1257385055       21.3666779370
  H        17.4029455863        5.1059954507        8.1042279275
  H        17.7813900225        4.6534969357        6.5091021405
  C        18.9632509316        6.3444714244        7.2637882115
  H         4.8044335550        7.0615235377       -0.3631834658
  H         6.0364956982        8.0706519066        0.4169629880
  C         4.0143410882        8.8154369854        0.4645118406
  H        12.1254553830       -1.4678950824       -2.4184996833
  C        13.1659681525       -0.1022023224       -3.7018950790
  H         5.5791515319        8.5683109561       22.0855403542
  H         5.7796654673       10.0828645690       21.4007209588
  C         7.6602726215        9.2901506443       21.8432728645
  H        19.4446506548        6.0463164621        8.2079596550
  H        18.8745657153        7.3996707773        7.3327848922
  C        20.0295958845        6.0849520893        6.2411725737
  H         3.7870173087        9.0107487913       -0.5255225968
  H         3.1806239807        8.3519173223        0.9711987674
  C         4.5565874187       10.1004513948        0.9576854679
  S        13.9433607414        1.3516702024       -4.2787861759
  C        13.1723236000       -1.2136007293       -4.6975019237
  H         8.3252118018        9.2314031717       20.9601006791
  H         7.8793768311        8.4020658940       22.4386173857
  H         8.0323859836       10.2393594140       22.2708205877
  H        19.7710703273        6.6704868146        5.3111276995
  H        20.8855594671        6.4741752352        6.7803547873
  H        20.1289609884        5.0196235393        6.0555457104
  H         5.5007320606        9.9116070300        1.4177997862
  H         4.8182775973       10.7302294955        0.0689764809
  H         3.8791352659       10.6446455480        1.6359712062
  C        14.2596473907        0.4927960929       -5.7855543227
  N        13.8767592822       -0.7874017842       -5.7680024399
  O        12.7892727550       -2.3795649834       -4.4963929290
  S        14.6649262426        1.2206762839       -7.2685777816
  C        14.0150612612       -1.7687719897       -6.8723930085
  H        14.2623516186       -2.8424002294       -6.6388663370
  H        14.9080098370       -1.4840246513       -7.3328220777
  C        12.8068001048       -1.7958330502       -7.7919934570
  H        12.4797277946       -2.8153170487       -7.7945297046
  H        13.0944988574       -1.3421107312       -8.7458585882
  H        11.9424426613       -1.2624380102       -7.5173232309
  H        -2.9237526942       15.2237016211       15.9654035021
  C        -2.9370103269       14.1335651245       16.2198132143
  H        -3.8562694220       14.0059734188       16.8151038852
  C        -1.7584822389       13.8116072382       17.0850707320
  C        -2.8089587372       13.3638030648       14.8752672340
  C        -2.2225761617       13.3057823301       18.4687666087
  H        -1.1698200353       12.9387438997       16.7534888684
  H        -1.1229274985       14.6456576237       17.1601606845
  H        -2.7017084565       14.0159672799       14.0105232671
  H        -2.0210380607       12.6030107335       14.9226070942
  H        -3.7605968796       12.8363127373       14.8090682000
  C        -2.2381158699       14.4142070107       19.4769757680
  H        -1.6222652096       12.5009814690       18.7479547283
  H        -3.1268089568       12.8483839924       18.4657486332
  C        -2.4747119240       13.8873586861       20.9441704707
  H        -1.3401449969       15.0887108011       19.3338811007
  H        -2.9335425861       15.1020662440       19.2082620934
  C        -1.3243788974       13.2196176248       21.7089658115
  H        -3.3838502671       13.2133937593       20.9119623499
  H        -2.7800048097       14.6855811354       21.6359850019
  C        -0.2560465230       14.1509944356       22.2823636476
  H        -1.8567690622       12.7511827835       22.5401833917
  H        -0.8822459726       12.4621821494       21.0779473084
  C         0.9418465169       13.4857400211       23.0156453892
  H         0.1084825795       14.6948344207       21.4104415651
  H        -0.6818699008       15.0144891533       22.9143516232
  C         1.3767114397       12.2142693880       22.3212568926
  C         0.6108622445       12.8057290765       24.2817202833
  C         2.2158920066       14.4762733754       23.0974969772
  C         1.1279129992       11.0955817950       23.0934420167
  C         2.0161002308       11.8599247966       21.1208761540
  C         0.6870571680       11.4225553627       24.3345357750
  C         0.1924186641       13.4241643057       25.4319345399
  H         2.3366518965       14.7695974885       22.0036503522
  H         1.9324541029       15.3792993326       23.7158974367
  C         3.4589033516       13.7778894386       23.6395781449
  S         1.7158637068        9.6383165314       22.3559672610
  C         2.0915869470       10.5429562199       20.9284577527
  H         2.0562151587       12.6221968076       20.3745937207
  C         0.2976841955       10.7917370393       25.4877309103
  H         0.0032944317       14.4957990559       25.4293959229
  C        -0.1885034170       12.7596132873       26.5495113762
  H         3.6479759875       12.8778264951       23.1150824228
  H         3.2079114491       13.5427949457       24.6247170479
  C         4.6932711618       14.6735705699       23.6833320053
  C         2.4155257518        9.8286354271       19.6440897716
  C        -0.1400146434       11.3909986286       26.6437473339
  H         0.4656632785        9.7011485612       25.5157531816
  C        -0.5087984935       13.1206962317       27.8650601099
  H         5.3832102322       14.3320250458       24.4152844779
  H         4.3696138311       15.5907412808       23.9672776720
  C         5.2918450843       14.7838260108       22.3148037084
  C         2.5067942954        8.4140343761       19.4034859038
  C         3.0502123494       10.6832902274       18.5360674340
  C        -0.4088580981       10.7123757907       27.9932719806
  C        -0.6273845470       12.0779450513       28.7566534902
  S        -0.8040274386       14.6432305694       28.6659151026
  H         5.9298313683       15.7474141091       22.2725438938
  H         4.4130141602       15.0123240167       21.7073267774
  C         6.1033701048       13.5149589793       21.9105098012
  N         2.1949690609        7.4111766331       20.3134674300
  C         2.8953985836        7.9056002913       18.2135159985
  C         3.5498072125       10.0867184128       17.3743873659
  H         3.4151736534       11.6488576879       18.7742300867
  C         0.7415295988        9.9130372121       28.5668023298
  C        -1.6881867876        9.8328875915       27.8451834903
  C        -0.9528387925       12.3984730759       30.0780906077
  C        -1.0179159267       13.7835739866       30.2184684534
  H         7.1663601023       13.8591952539       22.1002709567
  H         5.7499458166       12.6082208274       22.4868755432
  C         5.8393420421       13.2113471629       20.4457343315
  S         2.4641990326        5.9628543931       19.6095516641
  N         2.7824742902        6.5333386151       18.1584354968
  C         3.3209515175        8.6290946875       17.0778071914
  H         4.1834633406       10.6239435999       16.6765552563
  H         0.9958171524        9.0284982537       27.9697734819
  H         0.4003944638        9.2756524823       29.3714326352
  C         1.9108875846       10.6678522450       29.0713845898
  H        -1.4170981214        9.0842832530       27.0942169935
  H        -1.7616482766        9.2715838965       28.7311988260
  C        -2.8977588990       10.6815779577       27.4363097919
  H        -1.0128423755       11.6514837784       30.8424273492
  C        -1.3392763850       14.4402692014       31.5380544532
  H         5.1541144810       13.8713718810       19.9805236352
  H         5.3626662366       12.2356778662       20.3374563415
  C         7.1559972773       13.2086720377       19.6526750946
  C         3.5953865375        7.9235795245       15.8380418596
  H         2.2348700224       11.2707609271       28.2910252723
  H         1.6630200036       11.3799099679       29.8011844758
  C         3.0510952710        9.7302142425       29.5282088431
  H        -2.5073688168       11.2558724734       26.5287111656
  H        -3.1645174453       11.3601348075       28.2767954752
  C        -4.1429652814        9.8023730421       27.1325382984
  C        -1.3610919824       15.8462035312       31.7470207729
  C        -1.5754669894       13.6048536035       32.7921567385
  H         7.6604174285       14.1599639419       19.8685225099
  H         7.8017266127       12.3698571362       19.8333020347
  C         6.9440974865       13.2505869849       18.0972373392
  H         3.3098345493        6.9218266625       15.7850831364
  C         3.9701503219        8.3855415298       14.6051668839
  H         3.4476358982        9.2592970538       28.6001501399
  H         2.6682612851        8.9485990424       30.2040142272
  C         4.0721652411       10.4882854645       30.3205383619
  H        -3.8500772374        9.1308443586       26.3276164956
  H        -4.4057416609        9.1418282060       27.9599839004
  C        -5.3360851012       10.6786129928       26.8418945409
  N        -1.1600374256       16.7817104042       30.7296663338
  C        -1.8535820159       16.3991988640       32.8499795044
  C        -1.9153296143       14.2269615527       33.9582383285
  H        -1.4749634634       12.5613640991       32.7598534552
  H         6.8669469793       14.2816591357       17.7918653623
  H         7.7729945538       12.7658405644       17.5625044917
  H         5.9889405872       12.7955849102       17.8262560680
  S         4.1105174865       10.0112410034       14.0788090641
  C         3.8710470298        7.3340190630       13.5056283836
  H         4.1369772999       11.5677809269       29.9006054475
  H         3.8711923180       10.6394870686       31.3590393073
  C         5.5361736204        9.9591320796       30.3236418804
  H        -5.2334632013       11.4490868616       27.6012517720
  H        -6.2599291590       10.1496066103       27.1066494026
  C        -5.4180127562       11.1948297939       25.4223188700
  S        -1.5483654180       18.2730878587       31.3003657441
  N        -1.9344320434       17.8063339877       32.8008406023
  C        -2.0638659550       15.7078405051       34.0165591465
  H        -1.9738568818       13.5935370051       34.8137301844
  C         4.2681064830        9.3120045108       12.4554922391
  N         4.1220245984        7.9727804281       12.3137017435
  O         3.7524883382        6.1203739366       13.6347604474
  H         6.2522756530       10.6194464126       30.7449476369
  H         5.8856533065        9.8415881288       29.3008198832
  C         5.8118814405        8.6884448845       31.1003189389
  H        -4.7712124299       12.1293285789       25.4726946133
  H        -4.9851634211       10.5976746424       24.6741954249
  C        -6.7753572654       11.5210038878       25.0028069131
  C        -2.4827285691       16.4653524161       35.1649065021
  S         4.6349072637       10.2208055311       11.0150838992
  C         4.1712418698        7.2441955677       11.0221033561
  H         6.4446801890        8.8644547924       31.9587204886
  H         4.8654146395        8.2659173031       31.4621824656
  C         6.4303038569        7.5736572258       30.2683302166
  H        -6.7492673180       12.2050478777       24.1654899856
  H        -7.2617035463       12.1471932081       25.8012358911
  C        -7.5564190706       10.2450112697       24.6276620146
  H        -2.2892269535       17.5466035038       35.2804104182
  C        -3.0078764392       16.0419187408       36.3779198540
  H         4.7625264765        7.5966012100       10.1735220443
  H         4.6158345387        6.3262152446       11.2159326378
  C         2.6905854883        6.9484884992       10.4844979590
  H         7.2668868074        8.0379725454       29.6978328305
  H         5.6888167118        7.2006193696       29.5565991112
  C         6.8545122763        6.4767898973       31.1929583867
  H        -7.8258173512       10.3287479548       23.5638860125
  H        -6.8761332565        9.4120347467       24.6383978558
  C        -8.7971588943       10.0506925397       25.5280648197
  S        -3.5294288033       14.3991081476       36.7911588399
  C        -3.1854244151       17.0876843208       37.4330669415
  H         2.4651900152        7.6324466170        9.6959956907
  H         2.4762089109        5.9911929626       10.0800872600
  H         1.9198547785        7.2610898997       11.1852259826
  H         7.0910675037        5.5696704630       30.6691104777
  H         6.1491996196        6.2244083435       31.9830436923
  H         7.7746182108        6.8565734666       31.5549059846
  H        -9.0137321354       10.7394241223       26.4186583935
  H        -8.7708278412        9.1037858680       26.0481863785
  H        -9.6478002583        9.8508279553       24.8770992916
  C        -3.9313834122       15.1580259407       38.3352790679
  N        -3.7737526972       16.4956636736       38.5050515067
  O        -2.8586794856       18.3002135653       37.2968212081
  S        -4.5699703812       14.3237932801       39.7037452761
  C        -3.8508496538       17.2037716703       39.7683018291
  H        -4.0800875521       18.1612605899       39.5533774644
  H        -4.7357285225       16.8998876024       40.3119813402
  C        -2.5990759715       16.8491135348       40.5758777754
  H        -2.6934982953       16.7249315147       41.6518281481
  H        -2.1248785766       15.9812831312       40.2126106846
  H        -1.7893467557       17.6043378122       40.2712253258
