352
i=
  H         4.4867703904        1.4158062395       12.9507679280
  C         3.7376497961        2.2353481979       12.9806833162
  H         4.2807854000        3.1533325423       13.3514115861
  C         3.1200950631        2.5323288945       11.5899989156
  C         2.7341510704        1.8364301628       14.0941204822
  C         4.0728804144        2.5239793664       10.4496965356
  H         2.4917212896        3.4276972469       11.6159231250
  H         2.3460657802        1.8682930422       11.3615089098
  H         1.8779804276        1.2952461814       13.7220269935
  H         2.3748023456        2.7270517501       14.6102690393
  H         3.1955531628        1.2349840851       14.8560972585
  C         4.6202775697        1.1796733607        9.9846399265
  H         3.4950258924        2.9248415735        9.6053813514
  H         4.9685447299        3.1587708939       10.6468663846
  C         5.5179507053        1.1210806327        8.7128052034
  H         3.8202279636        0.4619958560        9.8496958091
  H         5.2045101209        0.7656951435       10.7983734973
  C         6.7347276615        2.0105115074        8.5578094537
  H         4.9266706981        1.5515659618        7.8669666836
  H         5.7657880488        0.1088117832        8.3565859273
  C         7.9644686592        1.4261024082        9.2197107409
  H         6.9846845427        2.1641947710        7.5255898934
  H         6.5290802314        2.9969812575        9.0166639648
  C         9.1817804054        2.4703069082        9.2444111280
  H         8.2697380984        0.5816208781        8.6501214386
  H         7.8034048659        1.0719482944       10.2866463940
  C         8.7289115420        3.7174560461        9.9243114928
  C         9.5361300621        3.1461897120        7.9984567767
  C        10.3464739567        1.8621556613        9.9105614929
  C         8.8560743029        4.8623541071        9.1121786311
  C         8.1125309657        4.0750455603       11.1633321395
  C         9.3533116503        4.4916890500        7.8886241305
  C        10.0532969400        2.5162054516        6.9197119158
  H        10.1427232176        1.2831759268       10.7547083561
  H        10.7534275036        1.1079488200        9.2602784722
  C        11.5053924449        2.8417046149       10.2716675741
  S         8.3700194299        6.3131464571        9.9677043469
  C         8.0409728672        5.3976709739       11.3677292424
  H         7.8432884217        3.3049751877       11.8324798446
  C         9.7942452845        5.1529273875        6.7439748657
  H        10.1474064868        1.4845306831        7.0156071270
  C        10.3896670859        3.1460895167        5.7321298145
  H        11.0967242510        3.8236474753       10.7968179059
  H        11.9304747763        3.1768864529        9.4035893416
  C        12.6836732119        2.0651085109       11.0160253657
  C         7.6059521048        6.1031058854       12.6315430826
  C        10.2916715386        4.4897728102        5.6063305936
  H         9.7453492972        6.2100967125        6.5978037652
  C        10.7102697522        2.7009806107        4.4467470977
  H        13.5942773985        2.7050228758       11.0769340958
  H        12.8909226700        1.1837020132       10.3885708988
  C        12.3899202237        1.5513442627       12.4044001665
  C         7.6793370754        7.4981221319       12.8729244592
  C         7.0408471020        5.3603138062       13.8059246504
  C        10.6011120723        5.1299077470        4.2643440350
  C        10.9184811009        3.7817183640        3.6354950782
  S        10.8800816882        1.1234800504        3.7207531162
  H        11.9059588662        0.5666603808       12.3913072297
  H        13.3706763255        1.3808311280       12.8788815701
  C        11.6219317854        2.4060255062       13.4204648461
  N         8.0383715052        8.4362491756       11.9018254747
  C         7.4477691349        8.0958525691       14.0621970193
  C         6.7288714632        5.9908387511       14.9812010502
  H         6.5626495647        4.4373054003       13.5579416971
  C        11.7721551850        6.1622326778        4.3473368685
  C         9.3497997263        5.7238541071        3.5723535905
  C        11.3964867680        3.3018012312        2.4420431843
  C        11.4320875209        1.9450317242        2.3136417468
  H        10.5877390093        2.6913485797       13.1740661436
  H        12.1366842797        3.3881497504       13.5093573316
  C        11.6076467708        1.7201483829       14.7659723708
  S         8.0909069327        9.9351603830       12.5320151767
  N         7.8358372306        9.4587572006       14.0929696072
  C         6.9985960841        7.4385799357       15.2193910950
  H         6.3557150544        5.3696671395       15.7854729495
  H        11.4155969449        6.9074755824        5.0887186490
  H        11.8979193108        6.7712852682        3.3968584132
  C        13.0638520191        5.5602383209        4.8839405383
  H         8.9287508797        6.5113695984        4.1559875961
  H         9.6549786942        6.2235709494        2.7181135621
  C         8.2113047784        4.7186767138        3.2485142191
  H        11.5780189742        4.0355958705        1.7104009150
  C        11.7634667674        1.2421270453        1.0078381096
  H        10.5874265366        1.5327406615       15.2250769441
  H        12.0325336569        0.6736752135       14.6435172633
  C        12.4337296441        2.4552672897       15.8743183634
  C         6.7725644079        8.1913443742       16.4625624589
  H        12.7933717350        4.7396806235        5.5846256229
  H        13.6667251887        5.1880999161        4.0927693422
  C        13.9428798803        6.5059432953        5.7095382702
  H         8.0826245422        3.9761045412        4.0929608641
  H         8.3977830946        4.2714687054        2.2900955112
  C         6.8436702823        5.4087500153        3.1343747697
  C        11.7880831146       -0.1437299094        0.7557499288
  C        11.9322452213        2.1196239748       -0.1640901177
  H        12.2230595028        3.4954099674       15.8990695521
  H        13.5141299257        2.4239128911       15.7435476155
  C        12.2784557525        1.9252810034       17.3869584059
  H         6.9444706391        9.2711081096       16.2992642150
  C         6.5059295442        7.7680702634       17.6991424991
  H        13.3447893369        7.1016131485        6.4052605366
  H        14.5157752383        7.1278448308        5.0297295484
  C        14.9947051763        5.7539138297        6.4982111115
  H         6.1748663591        4.7310483755        3.5788948315
  H         6.8183842356        6.3490965754        3.6090133273
  C         6.3351454554        5.4115278481        1.6470850035
  N        11.5294562912       -1.2007876613        1.6971159920
  C        12.1529460081       -0.6394883944       -0.4556189170
  C        12.1943215150        1.6334738751       -1.4226958916
  H        11.7688724012        3.1535547007       -0.0663987937
  H        12.9050023989        1.1125906679       17.4531551715
  H        11.2280409731        1.6732828145       17.5577060205
  H        12.6389790219        2.6966036738       18.0929428658
  S         6.1720945861        6.1519071660       18.3712809378
  C         6.4997019861        8.8075382929       18.7879141527
  H        15.2827102067        6.3097389645        7.4250507407
  H        14.5517856589        4.8762127079        6.8243701331
  C        16.1786900718        5.3410291120        5.6245731822
  H         6.3234362759        4.3766226820        1.2345673227
  H         7.0323189866        5.9015532255        1.0350263119
  C         4.8898538967        5.9102906942        1.5577598526
  S        11.8993125503       -2.5914475126        1.0772348630
  N        12.3524719010       -2.0534447866       -0.3997139153
  C        12.5274209411        0.1457861282       -1.5539877352
  H        12.3355962031        2.3916304639       -2.2609405734
  C         5.9773625861        6.9032588689       19.9293718936
  N         6.1032338280        8.2450244655       19.9670700573
  O         6.5920572094       10.0168157357       18.5328200605
  H        15.9163879226        4.6325888796        4.8624242205
  H        16.6672738229        6.1966547917        5.1226410987
  C        17.2395682532        4.7053008045        6.4974723026
  H         4.4543993607        5.6362770045        0.6153849739
  H         4.3653016412        5.3382939891        2.4073638886
  C         4.6855106204        7.4655920108        1.8188263126
  C        12.9137462656       -0.5447392637       -2.7497473523
  S         5.4767997114        6.0692639398       21.3955609011
  C         6.0002142446        9.1763540389       21.0854296176
  H        16.6793585265        4.1137670650        7.2020850593
  H        17.8704381771        4.0450893983        5.8833526647
  C        18.1994615295        5.7258563358        7.0432438229
  H         5.2611593058        7.7034937727        2.7246839875
  H         3.6350073247        7.6604087697        2.1428720825
  C         5.0937689240        8.4589752550        0.7545249727
  H        12.8379193464       -1.5756401674       -2.6735879363
  C        13.3684466078       -0.1724992933       -3.9786607526
  H         5.3427129265        8.6647236952       21.8416855000
  H         5.4025046174       10.0783899434       20.9473867964
  C         7.3295578844        9.3392209548       21.8459556720
  H        18.3299009560        5.5916935917        8.1212063283
  H        17.8644542099        6.7390581665        6.9120835198
  C        19.5836153070        5.6748378277        6.4416518424
  H         6.1785565172        8.5414449538        0.7072763016
  H         4.5997811249        8.1605726032       -0.1442330969
  C         4.7192714880        9.8972168572        1.1027567738
  S        13.7658912081        1.4386535670       -4.3854552743
  C        13.6441331603       -1.2737973028       -4.9822416480
  H         7.2370496455        8.8826964261       22.8147363162
  H         7.5554687861       10.3805296910       22.0513146351
  H         8.2009523379        8.9236200277       21.4455319747
  H        20.0326349595        4.7475958505        6.5986812217
  H        19.5905154443        5.8583452018        5.3391442108
  H        20.1172538772        6.5090420847        6.9439920446
  H         5.2139075974       10.3088239417        1.9687338079
  H         4.6145851049       10.5359394778        0.1883688027
  H         3.6686572026        9.8308114955        1.3768214789
  C        14.2968532379        0.7012504292       -5.9148341660
  N        14.3203903602       -0.6759986516       -5.9947716676
  O        13.8501600163       -2.4239486853       -4.5900314675
  S        15.3127976418        1.7412461351       -7.0669015332
  C        14.6070097780       -1.3995143940       -7.1353172555
  H        14.6090921150       -2.4422244189       -6.9248439473
  H        15.5850139194       -1.1912101068       -7.5816927699
  C        13.4888358997       -1.2645365556       -8.1572266164
  H        12.5324562605       -1.1693700389       -7.6124011089
  H        13.5217483455       -2.0817140340       -8.8257972060
  H        13.6255979757       -0.3619946832       -8.8298318619
  H        -3.5794057376       14.1198887346       16.8673973499
  C        -2.7478054780       13.4270474589       16.6980230992
  H        -3.0969990937       12.5106125353       17.1016005700
  C        -1.5375103412       14.0155279870       17.4824521242
  C        -2.5033734838       13.1490061556       15.1612009655
  C        -1.7460046172       14.1134294123       18.9903589269
  H        -0.5482568280       13.5297155881       17.3846940764
  H        -1.4852702654       15.0716900036       17.1286111638
  H        -2.0474523169       12.2163540771       15.1635617984
  H        -3.4103527672       13.0687950051       14.5925586174
  H        -1.8789263976       13.8173656220       14.6705623894
  C        -1.3040821383       12.8500112186       19.6983703101
  H        -2.7980770352       14.2286700265       19.2844656601
  H        -1.2999085511       15.0088618457       19.3811517166
  C        -1.7879311304       12.8669229466       21.1666808935
  H        -1.7132048969       11.9345886302       19.1837224680
  H        -0.2287346204       12.6870449209       19.5280263848
  C        -0.6975574444       12.4078534159       22.0995093318
  H        -2.7483653688       12.2951988307       21.3285839303
  H        -2.1183405249       13.8593083527       21.4321360840
  C         0.3564997229       13.5126020147       22.4270886756
  H        -1.0610599089       12.0100952689       22.9710859263
  H        -0.2518152950       11.5264576390       21.6766635830
  C         1.6109915534       13.0455809569       23.1243072833
  H         0.7089659064       14.0633320073       21.5593314713
  H        -0.0524250303       14.1983398269       23.1055879645
  C         2.0522605226       11.6866771704       22.5116606280
  C         1.1484256271       12.3393477544       24.3878672367
  C         2.6619950055       14.1561355139       23.4414786010
  C         1.8311473753       10.5910539186       23.3473665216
  C         2.3479437397       11.2093119729       21.2807479025
  C         1.2608570221       11.0085667881       24.5269159195
  C         0.5591658957       12.8965032285       25.5150586176
  H         2.7089305098       14.8130890059       22.5972168032
  H         2.2837088095       14.7473204268       24.2033092480
  C         3.9511610553       13.5268934562       23.8056835416
  S         2.1514545644        8.9852807754       22.6806327836
  C         2.3700177080        9.8007441068       21.1380423520
  H         2.3531650381       11.9374469379       20.5281453892
  C         0.8315305497       10.2939663296       25.6299989755
  H         0.5003676262       13.9881597805       25.5365977081
  C         0.1642080496       12.2105341459       26.6425646726
  H         4.2458992921       12.8251784485       23.0695225597
  H         3.7858626226       12.9303645281       24.7413887085
  C         4.9427345297       14.6080270285       24.1971563799
  C         2.7302934097        9.1369328117       19.8584074708
  C         0.2436727745       10.8512361164       26.7062359205
  H         0.8533065739        9.2165553675       25.5081829358
  C        -0.2264117221       12.5833564184       27.8958759206
  H         5.5740657891       14.0893456973       24.9178565826
  H         4.4663067529       15.4112728799       24.7445962247
  C         5.7657580758       15.1533080858       22.9735530271
  C         2.6355503632        7.8183122083       19.5350482680
  C         3.1240338491       10.0507157976       18.7293128108
  C        -0.2153065009       10.1984959277       27.9930013951
  C        -0.5471152260       11.5437237901       28.7176437367
  S        -0.3262567325       14.1210343918       28.6429022829
  H         6.4541111550       15.8338244793       23.4182156190
  H         5.1794025558       15.6273830317       22.1942248926
  C         6.6742101197       14.1082979820       22.2888291984
  N         2.3926851895        6.8335731201       20.4916984763
  C         2.9339671383        7.3329023967       18.2952564039
  C         3.2178455216        9.6078365217       17.4279121167
  H         3.1511270909       11.1810971606       18.9666535331
  C         0.9394032458        9.3825800293       28.6094551349
  C        -1.5215993581        9.4455803109       27.9033512374
  C        -1.0186581214       11.9926287661       29.9675981853
  C        -0.9343569115       13.3402348564       30.0771679509
  H         7.7193067437       14.5844903607       22.2535422717
  H         6.6460959284       13.2058715165       22.8855991263
  C         6.1381291380       13.8648929135       20.8961557146
  S         2.2998383839        5.4093603536       19.6711318950
  N         2.7138544088        5.9436828107       18.1656182710
  C         3.2128512438        8.1501932952       17.1430799133
  H         3.4416350050       10.3385330155       16.6656122622
  H         1.3867722128        8.6997887089       27.9566121670
  H         0.5984787024        8.9517620255       29.5486543062
  C         2.1684694600       10.2965365947       29.0016510783
  H        -1.5426799472        8.4927684745       27.2675269100
  H        -1.7484013134        9.0134334866       28.9071313048
  C        -2.7911788295       10.2949462961       27.6808959712
  H        -1.1316905755       11.2300827265       30.8102408314
  C        -1.2859445494       14.1674601406       31.2986054545
  H         6.1012507820       14.7772617399       20.2821527843
  H         5.0941873892       13.5765232712       20.8608939717
  C         6.9781674311       12.8539556415       20.0346984515
  C         3.3676455563        7.5349842649       15.8086655720
  H         2.6547952822       10.9331901940       28.2517761609
  H         1.8084938556       10.8379178138       29.9167899189
  C         3.3120574438        9.4723020514       29.6774709893
  H        -2.6943426533       10.9196772080       26.8184681895
  H        -2.9694241169       10.9571975064       28.4571019903
  C        -4.0407776379        9.3882369502       27.6589551955
  C        -1.3094742252       15.6144011007       31.2917971502
  C        -1.6568695715       13.5234189168       32.6495660358
  H         7.7767337415       12.3501416975       20.5925385830
  H         6.2736550194       12.1281215205       19.6075795876
  C         7.6381219402       13.4157155569       18.7650136061
  H         2.9205539441        6.5866929832       15.7530349080
  C         3.7337197338        7.8514245828       14.5289416425
  H         3.5235800116        8.7225107013       28.9371983003
  H         2.9040722151        9.0048868755       30.6175136018
  C         4.5820960310       10.2637257518       29.9992725106
  H        -3.9733833134        8.5907059261       26.9049559033
  H        -4.1191793974        8.8950433563       28.5920074972
  C        -5.4108991982       10.0808820626       27.3865366844
  N        -1.2003566403       16.3527184678       30.1340213165
  C        -1.6195396230       16.3651041210       32.3659806846
  C        -2.0139107515       14.3423261835       33.7178442285
  H        -1.8178047697       12.4730530145       32.7735572769
  H         6.7931606164       13.5242198309       18.0938737968
  H         8.2611299546       14.3422761894       18.9126417715
  H         8.4473377807       12.7369935529       18.3962292234
  S         4.3379795134        9.4543764328       14.0773664814
  C         3.5654532791        6.8607472005       13.4522267900
  H         4.8127686989       11.0771239196       29.2717406673
  H         4.4539214460       10.7538313084       31.0053027356
  C         5.8706286677        9.4742043897       30.0361066188
  H        -5.1834103726       11.1007256652       27.1024927017
  H        -6.0347737157       10.2322827642       28.2993120953
  C        -6.2890933359        9.4089987925       26.3507206130
  S        -1.1729640992       17.9833831132       30.4828166385
  N        -1.5837289414       17.7599644063       32.0505824007
  C        -1.9788097846       15.8301833149       33.6158734931
  H        -2.2854483303       13.8697927469       34.7171517809
  C         4.3991529094        8.7546489726       12.4447576262
  N         4.0650729438        7.4250119827       12.3526323722
  O         3.4090230383        5.6621089978       13.6567238707
  H         6.7881107331       10.0603043773       30.1825745496
  H         5.8311567998        9.1137256469       29.0320431566
  C         5.8746432976        8.2601497532       30.9337165881
  H        -5.7198693261        9.1314572094       25.4860473349
  H        -6.7267055784        8.5026453511       26.6735074519
  C        -7.2584048144       10.4744000918       25.8952029566
  C        -2.2963163059       16.7341358184       34.6938611991
  S         4.7333524786        9.6249734049       11.0172721423
  C         4.0576065960        6.5897015247       11.1733574896
  H         5.9220378889        8.5383195188       31.9375298556
  H         4.9495043943        7.7503327686       30.7738371421
  C         7.1073162867        7.4411611971       30.7677785261
  H        -6.9392140787       10.9693928530       24.9984887410
  H        -7.4327154101       11.2815793105       26.6433423775
  C        -8.6090564483        9.7836415200       25.5621357987
  H        -2.1962066474       17.7764966399       34.4397308109
  C        -2.6198623265       16.5235969907       36.0139627810
  H         4.7793579387        6.9351518941       10.4692771858
  H         4.3344842419        5.5067226585       11.2809754749
  C         2.6708208005        6.6850147307       10.5104661035
  H         7.8614557306        7.8257918658       31.4126482069
  H         7.4368844542        7.5271698866       29.7531068636
  C         6.8842510946        5.9631488773       31.0158375857
  H        -8.9854644871       10.1242691857       24.6333148649
  H        -8.3644145062        8.7042861341       25.4537524496
  C        -9.5737946097        9.9138456817       26.7466397224
  S        -2.9965000075       15.0005228172       36.7913453758
  C        -2.7118634095       17.6869207811       36.8968934525
  H         2.7227343966        6.1451687837        9.5501591939
  H         1.8326708664        6.2397300517       11.0744147677
  H         2.3757208920        7.7179158860       10.2207196115
  H         6.0782730734        5.5488630503       30.3505162455
  H         6.6099283685        5.8238425780       32.0616241954
  H         7.7279902371        5.4667921801       30.7230095294
  H       -10.1526300677       10.8088298730       26.8755875392
  H        -8.9863289945        9.7178567313       27.6443470062
  H       -10.2762171188        9.0718921370       26.8498078276
  C        -3.5296240856       15.9952774772       38.2270508378
  N        -3.3258718429       17.3111870774       38.0772940800
  O        -2.4938142729       18.8579666523       36.5119014358
  S        -4.1431167998       15.3101449522       39.7164633445
  C        -3.5271112161       18.3400024777       39.0581768248
  H        -3.5652207023       19.2564577287       38.5190997389
  H        -4.5329430106       18.2164402806       39.5683627338
  C        -2.3300899715       18.4324911451       39.9454733423
  H        -2.6163874464       19.0304385308       40.7840633436
  H        -2.0545245766       17.4678493159       40.3216817945
  H        -1.4755269492       18.8835182640       39.4268895584
