352
i=
  H         4.4252608578        1.0268744689       12.7393387649
  C         3.7927327607        1.9432573159       12.7769153178
  H         4.4537909614        2.7824471272       12.7933089408
  C         2.8497638810        2.1964811143       11.5791783377
  C         3.1158647521        1.8457842208       14.1306440323
  C         3.6471012385        2.5848821727       10.3464048602
  H         2.2930083423        3.0506457504       11.8121671203
  H         2.2656694871        1.2892593235       11.4936589976
  H         2.5749389400        0.9306455431       14.2181438686
  H         2.4866931376        2.7579027398       14.1653655575
  H         3.8290020467        1.9467588506       14.9673600331
  C         4.3740108474        1.3018136191        9.8029787351
  H         3.1357723106        3.0834500308        9.5970216089
  H         4.4192302052        3.3269930124       10.5526071416
  C         5.1374905127        1.6102819823        8.4797319333
  H         3.8157300022        0.3818648699        9.6224429720
  H         5.1502736040        1.0387649395       10.4728465566
  C         6.2603210764        2.6722903395        8.4931049073
  H         4.4651565536        1.9754686418        7.7198930450
  H         5.6177142555        0.7105071600        8.1473558157
  C         7.5161749033        1.9513835230        8.9189165670
  H         6.4161189075        3.1477036767        7.5585849411
  H         5.9191340527        3.5167990988        9.1820557300
  C         8.8246656541        2.7458572656        9.0785281253
  H         7.7749291968        1.0607176283        8.3652563008
  H         7.3554733458        1.5812149025        9.8558355600
  C         8.4666574264        4.0503500787        9.8000465992
  C         9.2941484026        3.4596851370        7.9124864105
  C         9.9405160319        1.8763293295        9.7611179341
  C         8.7345843627        5.1528350450        9.0592530099
  C         8.0872651282        4.3717369300       11.1171303493
  C         9.3428099857        4.7970803621        7.8501827612
  C         9.7348249690        2.7687047645        6.8564871595
  H         9.6551920646        1.4368580926       10.6696033700
  H        10.1927684253        1.0479588723        9.0513980521
  C        11.1997794724        2.6510673285       10.1082678773
  S         8.4174135703        6.6380686233        9.8948892186
  C         7.9660941410        5.7096825003       11.2366213940
  H         7.8035389655        3.6277974496       11.8845263779
  C         9.8116634271        5.3718468474        6.7150435345
  H         9.5793035574        1.6838690317        6.8440853672
  C        10.1815521443        3.3554318631        5.7301323909
  H        11.0308114655        3.6213660877       10.5917010870
  H        11.7827503172        2.8300794388        9.2136582373
  C        12.1317804299        1.8110872004       11.0190509372
  C         7.5285991257        6.4111150207       12.4992621077
  C        10.2790857647        4.7124923180        5.5717197122
  H         9.7986169604        6.4251951721        6.7063729858
  C        10.7223917671        2.8901802077        4.5129940851
  H        13.1256881648        2.1894092717       10.7079291873
  H        12.1845067372        0.7955353386       10.6674480609
  C        11.8847727922        1.8996717096       12.5091481451
  C         7.6718411959        7.7811033568       12.8331516093
  C         6.9758683454        5.5910314021       13.6192652793
  C        10.7394416373        5.3510438685        4.3196068357
  C        11.0223584949        3.9771891255        3.6802094811
  S        11.0380487259        1.3718408624        3.7984590257
  H        11.2802867212        2.8159676741       12.8279804934
  H        11.3957202197        1.0088039750       12.8613866665
  C        13.2421438711        2.0427822886       13.2272665750
  N         8.0394890241        8.7863626903       11.9055484878
  C         7.3275721319        8.2945300098       14.1072571719
  C         6.6513165311        6.0778218177       14.8574822027
  H         6.8046247951        4.5352297604       13.4637987250
  C        11.9385607050        6.2947045714        4.6015811075
  C         9.6261996705        6.2189030136        3.7203097171
  C        11.4784496614        3.5311999314        2.4606407700
  C        11.4870366667        2.1809898076        2.2801517688
  H        13.4539019894        3.0930532416       13.1330484259
  H        13.9902734299        1.4852608481       12.6901506193
  C        13.0796755073        1.5857889446       14.6969146822
  S         8.1364787234       10.2024593344       12.6516372929
  N         7.5381789649        9.7295325757       14.1204344286
  C         6.8275381525        7.4985557529       15.1521287961
  H         6.3201692264        5.3301398617       15.5604365736
  H        11.7194885661        6.8799547008        5.4774229861
  H        12.1884617771        6.9846621170        3.7512536386
  C        13.1243477779        5.3934631430        4.9889524801
  H         9.2056272874        6.9563585436        4.3852086555
  H         9.8723397210        6.7684681339        2.8319343775
  C         8.3905502443        5.4176027764        3.3581558711
  H        11.8156930104        4.2947755759        1.7217081782
  C        11.8468480668        1.3867073478        1.0253333783
  H        12.5204305621        0.5699845082       14.6653228166
  H        14.0218117468        1.4853223062       15.1667514338
  C        12.3006956509        2.5309659114       15.6218937458
  C         6.6179111746        8.1034216537       16.4226810036
  H        12.8414768392        4.6201298069        5.7540114081
  H        13.5988239282        4.8052246055        4.1853370447
  C        14.3732295237        6.2912756921        5.4823787692
  H         7.9296172216        4.8646167536        4.1847314864
  H         8.6745691546        4.6879559594        2.5698529646
  C         7.3001988814        6.2974608998        2.6955508456
  C        11.8437360052       -0.0860706721        0.9202913717
  C        12.0791765544        2.0926545161       -0.1897088321
  H        11.2229475657        2.4489915845       15.6515741347
  H        12.4114676134        3.4910707716       15.2060648189
  C        12.9177348208        2.8170686205       17.0346122284
  H         6.8501032432        9.1589748303       16.4140825900
  C         6.2927487268        7.6487007746       17.7007514563
  H        14.0974265998        6.7314175797        6.3821686032
  H        14.5064027864        7.1423876053        4.7762135836
  C        15.6283546924        5.3259571787        5.6838115173
  H         7.0654027928        7.0870452959        3.3342921559
  H         7.6112463355        6.7755314068        1.7188162941
  C         6.1064867953        5.2831835116        2.6025780299
  N        11.6332810939       -0.9750867937        1.9608953537
  C        12.1074103227       -0.6764243039       -0.3270376621
  C        12.3675604434        1.4908505259       -1.3845537264
  H        11.9193872969        3.1021078182       -0.1440432198
  H        13.9212197947        3.2895589205       16.7279348644
  H        13.1440078531        1.9109582949       17.5990915298
  H        12.4517132872        3.6740947367       17.5944127894
  S         5.8565678196        6.0209952814       18.1710953373
  C         6.3128794753        8.6425799092       18.7877313565
  H        15.4226211730        4.4307301097        6.2179255066
  H        16.1082196135        5.0222091820        4.7671082794
  C        16.7613120601        6.0894250425        6.4074712002
  H         5.6946259622        5.0334649223        3.6078286629
  H         6.3586364882        4.4100739453        2.0955379631
  C         4.8703436122        5.7665467343        1.8224154364
  S        11.5504262817       -2.4757874849        1.2551235206
  N        12.1424970233       -2.0599950908       -0.1929632575
  C        12.5101173237        0.0276546121       -1.4419991041
  H        12.5346161058        2.0510307588       -2.2892655172
  C         5.7404130396        6.7130433372       19.7436649311
  N         5.8849361134        8.0736605511       19.8850355359
  O         6.4453067607        9.8965376176       18.6817330899
  H        17.3335216775        6.6750345931        5.7116515396
  H        16.4812758603        6.8035985778        7.1528146305
  C        17.7131044218        5.2182567146        7.1592800446
  H         5.0948049115        5.6257303578        0.7436798136
  H         4.0500325902        5.0987540616        2.0641789334
  C         4.3796537712        7.1852664370        2.2484062431
  C        12.8239311677       -0.6982060178       -2.6010554839
  S         5.4618501691        5.7437673654       21.1760642574
  C         5.8851745110        8.8365136680       21.1756550501
  H        17.2263053423        4.8634801227        8.1010091218
  H        17.9774773707        4.3567180443        6.5334680801
  C        19.0030210549        5.9309160502        7.4302629998
  H         5.1595690108        7.7220037243        2.7869139515
  H         3.5627312933        7.0850578402        3.0066639105
  C         3.9128351091        8.0826059139        1.1350549852
  H        12.7755401140       -1.7763640351       -2.5246512251
  C        13.3068742716       -0.3154700747       -3.8066235100
  H         4.9503251000        8.4164708801       21.6453984987
  H         5.6016705167        9.9121536525       21.1800248560
  C         7.2437280522        8.6958725726       21.8739430249
  H        19.3769980054        5.5020646595        8.4115253033
  H        18.8689034722        7.0348182506        7.5864847241
  C        19.9884967581        5.8949614756        6.2566473923
  H         4.4324727999        7.7705731056        0.2150150275
  H         2.8573328362        7.8484426740        0.9845160318
  C         4.3441236150        9.5859176608        1.4894465436
  S        13.8405991450        1.2680926955       -4.2836572258
  C        13.5789440488       -1.3910796326       -4.7963998105
  H         8.0894639428        8.8297839453       21.1999233871
  H         7.3819753078        7.7814173052       22.4575431405
  H         7.3858533667        9.4783874292       22.5394406647
  H        20.9178364921        6.4140698491        6.4371607809
  H        20.3053820695        4.7904055130        5.9408066112
  H        19.5050757298        6.2327262011        5.3371750025
  H         4.2605430497       10.2246774588        0.5863123174
  H         3.6906117084       10.1040718950        2.2116119960
  H         5.3385648505        9.6100869618        1.8836563499
  C        14.4584744146        0.4815853640       -5.7014674695
  N        14.1863418768       -0.8299594893       -5.8117928600
  O        13.2594134811       -2.5991470014       -4.7016078259
  S        15.1944195889        1.3512887488       -7.0900932515
  C        14.3839307237       -1.6364535611       -7.0089668311
  H        14.5022825129       -2.6835807880       -6.7860604360
  H        15.3254351214       -1.3036973142       -7.4552715756
  C        13.3069914329       -1.3794754134       -8.0866495017
  H        13.5233797275       -0.4397656224       -8.6530732181
  H        12.3121763801       -1.2721122889       -7.6324221899
  H        13.0960136269       -2.1550438208       -8.7797306037
  H        -2.6599988399       14.9495283929       16.3275313241
  C        -2.6976904040       13.8705634702       16.4327925758
  H        -3.7719957548       13.6220125341       16.5081915430
  C        -1.8946075721       13.3551307778       17.6087514897
  C        -2.0987654851       13.3122179130       15.1323721263
  C        -2.1666288285       14.0859402861       18.8961916231
  H        -2.0166435896       12.3330352519       17.8379070420
  H        -0.8236770304       13.5661915903       17.4349568478
  H        -2.2668670811       12.2122631396       14.9307809174
  H        -2.4329090002       13.8860444614       14.3252947054
  H        -0.9987743584       13.5521728362       15.1693650313
  C        -2.4419700483       13.0666084470       19.9674210622
  H        -2.8900355979       14.8282685699       18.7876221670
  H        -1.3058988832       14.5627058330       19.3204568694
  C        -2.5195802245       13.6301047899       21.4026470992
  H        -3.3151419943       12.4950476881       19.7144352244
  H        -1.6356779255       12.3677062368       19.9893170708
  C        -1.5700413916       12.9713948454       22.3562374639
  H        -3.4901635042       13.3184866242       21.7473880160
  H        -2.5325613507       14.7433770434       21.3877751879
  C        -0.3033228429       13.7688391819       22.4339326425
  H        -2.0427157673       12.7862406922       23.3495933055
  H        -1.3113236754       11.9961936171       22.0670526681
  C         0.8695541884       13.0780125589       23.1612806886
  H         0.1024851383       13.8925287145       21.4414245444
  H        -0.4751474233       14.8130659264       22.7268851916
  C         1.2404895238       11.7215999939       22.4770725269
  C         0.5139000399       12.3756015782       24.4413593464
  C         2.0395996153       13.9689365113       23.3585689077
  C         1.1413569955       10.6530712143       23.3762098630
  C         1.6539608773       11.2571570772       21.2087230136
  C         0.6036938725       11.0226505684       24.5938183253
  C        -0.0300366473       12.9580805007       25.5990283995
  H         2.3353812664       14.4354888646       22.4676518225
  H         1.7478132756       14.7786799082       24.0615136149
  C         3.3157387055       13.2544647357       23.7319592088
  S         1.6094978225        9.1462458197       22.6677203087
  C         1.8729338074        9.8750891533       21.1538201544
  H         1.5482541665       11.9454999564       20.3424155601
  C         0.2001680219       10.3652211275       25.7327130243
  H        -0.1361894057       14.0333632054       25.6718011931
  C        -0.4613464724       12.3329996901       26.7424682904
  H         3.6217449387       12.4543247514       23.0521161877
  H         3.1976220468       12.7139467644       24.6714805897
  C         4.5704384769       14.1602853930       23.8233334476
  C         2.2812450569        9.1226034859       19.9194317599
  C        -0.4078630626       10.9462670323       26.8852618217
  H         0.1612017157        9.2502663786       25.7634485465
  C        -0.7917822461       12.7683637830       27.9721188232
  H         5.3324963611       13.7964863727       24.5350673106
  H         4.2375227250       15.0133777615       24.4212536899
  C         5.2726717453       14.6149241058       22.5393853450
  C         2.4558367206        7.7341240964       19.7491959014
  C         2.5685026614        9.9830285944       18.7120551405
  C        -0.7268375149       10.3051645842       28.1925335930
  C        -1.0155567246       11.7039628351       28.8654348834
  S        -0.9295115970       14.2848701168       28.8079226421
  H         5.5080207212       15.6701397941       22.6208340719
  H         4.5159820477       14.5690791498       21.7692553821
  C         6.5219772379       13.7578014989       22.1858879307
  N         2.2207688734        6.8204781195       20.7310056241
  C         2.7107218205        7.2575409150       18.4882666899
  C         3.0283103467        9.4200899613       17.5151951597
  H         2.6248156556       11.0567809861       18.8664966207
  C         0.2935054630        9.5013399693       28.9315251159
  C        -1.9645838655        9.3916160662       27.9217902326
  C        -1.2717592299       12.1718926888       30.1766693538
  C        -1.1921535096       13.5054033605       30.3254589061
  H         7.4040324457       14.3448781877       21.9577370422
  H         6.8188699760       13.2498688859       23.0853834891
  C         6.2157519129       12.7311754322       21.1737961262
  S         2.1839950501        5.3802523690       19.9805376885
  N         2.6106220287        5.9079404935       18.5056230486
  C         3.0896154092        7.9621389770       17.3729177321
  H         3.2771740544        9.9871493071       16.7196374745
  H         0.6156335750        8.7246283124       28.2897731362
  H        -0.2196668177        9.0500538646       29.7313631612
  C         1.4395616058       10.3021599788       29.5701104615
  H        -1.7258083128        8.5371854023       27.3523473365
  H        -2.2220051675        9.0685516739       28.9873171583
  C        -3.2381523649       10.1359103741       27.4811041268
  H        -1.2902343638       11.3822491809       30.8848267470
  C        -1.4586652118       14.3054871170       31.5318838129
  H         5.2433727313       12.3233674497       21.4218026873
  H         6.8621411313       11.8700302876       21.2370753346
  C         6.2211133684       13.0898365844       19.7143992552
  C         3.3261923224        7.2722989651       16.1105742178
  H         1.7211596856       11.0279806154       28.7712940656
  H         1.1675977195       10.7952732640       30.5114834146
  C         2.6667951865        9.4828280409       29.9572593910
  H        -3.0967998079       10.7765332824       26.5681558416
  H        -3.4499553680       10.7901829962       28.3059182787
  C        -4.4987375170        9.3459634512       27.1096138583
  C        -1.5676463135       15.7077149411       31.6217380540
  C        -1.6412426354       13.5849013317       32.8296302614
  H         5.9356049943       12.2948429113       18.9987473291
  H         5.4431071228       13.8354436274       19.5649588538
  C         7.6047705278       13.5119930800       19.2023571730
  H         3.0905729737        6.2414334745       16.0614365843
  C         3.6199808962        7.7207712488       14.8539277814
  H         3.1141021725        8.9370180504       29.0905283254
  H         2.3223589766        8.6742928348       30.5118356109
  C         3.6806789241       10.2201019290       30.8200368912
  H        -4.1877068328        8.4662199004       26.4866058988
  H        -4.9593960559        8.8626704503       27.9990744899
  C        -5.6671164355       10.2131257706       26.4823991059
  N        -1.4021362436       16.5348376936       30.5319655667
  C        -1.7381693059       16.3678515823       32.8275291035
  C        -1.9015569021       14.2364551919       34.0726608571
  H        -1.4082471454       12.5560058212       32.8264193951
  H         8.0165019416       12.8235104423       18.5078557313
  H         7.5084247500       14.4951959084       18.7569438241
  H         8.4110962335       13.4542499585       19.9195456756
  S         4.0370068075        9.3771157737       14.3270327202
  C         3.6140893954        6.7613636129       13.7170024175
  H         3.5953296790       11.2228891677       30.3576067144
  H         3.4362731290       10.3609386721       31.8825609732
  C         5.1201635536        9.7571318129       30.5387644503
  H        -5.2496010576       10.5285985816       25.5076415148
  H        -5.8310730625       11.1922625583       27.0055630941
  C        -6.9618113192        9.4109700074       26.1675594168
  S        -1.3334477904       18.0520153643       31.0317211615
  N        -1.6487095302       17.7268733594       32.6501095585
  C        -1.9707235182       15.7405007630       34.0497422158
  H        -1.8717151755       13.6901453001       35.0039974394
  C         4.1468040254        8.7245659748       12.6911655589
  N         3.9873907636        7.3801982866       12.6124847538
  O         3.4335947867        5.5377302724       13.8396901975
  H         5.7646261767       10.5218649235       30.8841054125
  H         5.2407777075        9.5411792936       29.4268765925
  C         5.4435434696        8.6134489729       31.4487782732
  H        -6.8274457591        8.3740641411       25.7757549930
  H        -7.4726484090        9.3223974640       27.0756310563
  C        -7.8135176999       10.2018203227       25.2191244816
  C        -2.2765066132       16.5142030033       35.1880225785
  S         4.5829358519        9.6909662389       11.2575300467
  C         4.1131778739        6.6117933370       11.3635402318
  H         6.4443227487        8.8832587158       31.8407835630
  H         4.6663315562        8.5284357533       32.2717432388
  C         5.6064986720        7.3102442306       30.7352607391
  H        -7.1897122360       10.4554912230       24.3279380434
  H        -8.0533336386       11.1894154373       25.5813077021
  C        -9.1714869858        9.6365079371       24.7578462422
  H        -2.2355603276       17.5580229691       35.0535319817
  C        -2.7361642562       16.1479910842       36.4062441901
  H         4.8005431286        7.2021180245       10.7409368069
  H         4.5396258860        5.6467196446       11.5272868839
  C         2.7344509947        6.5888696913       10.6378430344
  H         4.6731047558        7.3393080084       30.1684403683
  H         5.7218890990        6.4427595040       31.2904264288
  C         6.8205941686        7.2879436433       29.7330464499
  H        -9.4410088669       10.3011819248       24.0125866034
  H        -9.0349082921        8.6413331197       24.3405609031
  C       -10.2116126683        9.6884698577       25.8021088461
  S        -3.2469207422       14.5995604088       37.0010017516
  C        -2.9165883720       17.2077485332       37.3913889425
  H         2.8499189174        5.9325413689        9.8110211676
  H         2.0902561177        6.1896991636       11.3395038919
  H         2.3676862489        7.5010534403       10.1938759723
  H         6.6300240539        6.5367059512       28.9008410227
  H         7.7077181940        7.0950763640       30.2117165932
  H         7.0193877028        8.1913701737       29.1345256255
  H        -9.8168977932        9.2536327442       26.7419201558
  H       -11.0617614627        9.1147708395       25.5226105783
  H       -10.5268004350       10.7430469583       25.9357949531
  C        -3.6122184669       15.3658370901       38.5099578559
  N        -3.4904286749       16.7357894790       38.5328091998
  O        -2.6161144312       18.4184688084       37.2037749117
  S        -4.3126756111       14.5716897571       39.9096635575
  C        -3.6708558387       17.6000386089       39.7329071216
  H        -3.8848646318       18.6079965067       39.2869475634
  H        -4.5511211221       17.3737536518       40.3210448301
  C        -2.4533212732       17.5738543123       40.6721534913
  H        -2.5675420370       16.9344329260       41.5405528067
  H        -1.4535391867       17.4848699232       40.1714636066
  H        -2.3386376754       18.5511458396       41.1284678631
