352
i=
  H         4.3522978075        1.5276399766       12.7048126779
  C         3.6360565320        2.3596514611       12.6503628537
  H         4.3255178321        3.2115001605       12.4650364335
  C         2.7448496705        2.1705563663       11.3932286006
  C         2.8701170305        2.5440845249       13.9735003768
  C         3.5021832839        2.2415190442       10.1260937186
  H         1.9088321596        2.7508183997       11.3648511407
  H         2.3011368852        1.1756403316       11.4540463730
  H         2.4410367915        1.6082038221       14.3373704574
  H         2.1567873641        3.3203394786       13.8009866382
  H         3.5758067128        2.8062238005       14.7292217042
  C         4.4742571066        1.1350197963        9.7174436270
  H         2.7120998367        2.3565270875        9.3816786522
  H         4.0846359546        3.1650311697       10.0764047616
  C         5.2084704225        1.4325827281        8.3648409526
  H         3.8250350092        0.2697028998        9.5601882401
  H         5.1268978978        0.9429257670       10.5704373260
  C         6.4016659191        2.3660035470        8.5479128800
  H         4.5251360315        1.5328243931        7.4764305273
  H         5.6208979197        0.4207855257        8.0864753973
  C         7.6071636627        1.6765288893        9.1296863746
  H         6.6516992759        2.9187855116        7.5677785713
  H         6.0536490788        3.2722914833        9.1532276402
  C         8.7940378757        2.6162339938        9.2838602637
  H         7.9561913020        0.8175238458        8.5457463209
  H         7.3293461609        1.3241797335       10.0806110198
  C         8.3987612772        3.9206746999        9.8886055715
  C         9.2227766739        3.2359842288        7.9794972220
  C        10.0975367920        2.0094258002        9.8495298217
  C         8.6555204372        4.9992739286        9.0918381699
  C         7.9886181713        4.3003423168       11.1947071200
  C         9.2461465294        4.6007242135        7.8958023992
  C         9.7358835691        2.5674537945        6.8864141216
  H         9.8204958455        1.4240017002       10.6864194882
  H        10.4305291549        1.3477375602        9.0421381626
  C        11.1383003350        3.0464107309       10.1737942399
  S         8.2000438248        6.4843019970        9.7992236472
  C         7.8876796520        5.6396881432       11.2698770775
  H         7.7801550054        3.5232894273       11.9172580445
  C         9.8142659978        5.1905325574        6.7766739376
  H         9.7972454228        1.4851102451        6.8509665011
  C        10.2650099491        3.1915978210        5.7830305988
  H        10.8497915540        3.8807716265       10.8134971611
  H        11.4401233239        3.5964601951        9.3042870741
  C        12.3373947146        2.5383314090       10.8779539106
  C         7.5266267284        6.3360203597       12.5592773279
  C        10.3106313399        4.5318355523        5.7182432487
  H         9.9951603029        6.2906198092        6.8082206357
  C        10.7682796716        2.7625162916        4.5685538689
  H        13.0017471397        3.3696825460       10.9861052840
  H        12.5988939917        1.8753256657       10.0991478785
  C        12.1507252146        1.8665196639       12.2675540379
  C         7.4185759088        7.7573553716       12.7843392819
  C         7.2864465362        5.5603257044       13.8092413102
  C        10.8266546476        5.1833715285        4.4837777165
  C        11.0917276901        3.8869907894        3.8201728946
  S        11.1790162132        1.2278718952        3.8354989756
  H        11.2524111954        1.2507194723       12.2556635231
  H        12.9613571276        1.1519283245       12.3450895121
  C        12.1143385395        2.8269178357       13.5167051513
  N         7.7634219587        8.6770702390       11.8162507825
  C         7.1552772812        8.3406213045       14.0404533541
  C         6.9482432840        6.2001525946       15.0230133500
  H         7.4041538804        4.5387671120       13.8544386699
  C        12.0305753043        6.0588188783        4.6230643844
  C         9.7254452449        5.9842647974        3.7791025149
  C        11.4129729756        3.4509769716        2.5364696708
  C        11.4583383144        2.1010950719        2.3708020093
  H        11.3985154154        3.5978402165       13.4437087649
  H        13.0528856255        3.3633428436       13.8504596218
  C        11.4442581355        2.0326270207       14.7173803365
  S         7.8978311693       10.1320904587       12.5249679495
  N         7.3059195143        9.6726276137       13.9926046069
  C         6.8498020646        7.6787382286       15.2178483482
  H         7.0524112287        5.6799863199       15.9498992287
  H        11.8470923327        6.8266873031        5.2852121468
  H        12.2858278479        6.5816770242        3.7201909149
  C        13.1946351196        5.2713692850        5.1453910156
  H         9.4392169751        6.8414301724        4.4759258879
  H        10.2093469775        6.5406736695        2.9990299840
  C         8.5468690355        5.1581177037        3.2930542875
  H        11.6502578312        4.2449290779        1.7699799809
  C        11.7657741359        1.3516599346        1.1138535050
  H        10.4728876973        2.4751598370       14.9632982568
  H        11.2918099210        1.0326783907       14.3783639638
  C        12.3809868737        2.0157332855       15.9286737300
  C         6.7143390909        8.4145764072       16.4089742186
  H        12.8023696722        4.9211710722        6.0677337044
  H        13.3954412226        4.4522393231        4.5251653091
  C        14.3533088082        6.1908606868        5.5062207618
  H         8.0943162691        4.6773712201        4.1489759215
  H         8.8743166631        4.4456142005        2.5998938704
  C         7.4573629850        6.1252558063        2.7927901224
  C        11.9086217914       -0.0682191172        0.9252299341
  C        12.0892998867        2.1039937531       -0.1259164364
  H        12.3572497032        3.0179815665       16.2889946456
  H        13.4437914669        1.8154367101       15.6312238671
  C        12.1133712475        1.0941383055       17.1765872592
  H         6.6841961489        9.4898136290       16.3098613210
  C         6.3777624368        8.1158864467       17.7059723493
  H        13.9934181172        6.9663452352        6.2180965074
  H        14.8719778270        6.6365117076        4.6734752138
  C        15.3884878549        5.3140961366        6.1638556006
  H         7.2048122640        6.8145420080        3.6456578185
  H         7.9941432439        6.7493608715        2.0869085179
  C         6.2779518426        5.6171870570        1.9895946491
  N        11.5576991060       -1.0507703812        1.8511531973
  C        12.2232803714       -0.6295019118       -0.3455502079
  C        12.4974921449        1.5280641972       -1.3048599668
  H        11.7439539463        3.1161784157       -0.1929585149
  H        12.6823552026        0.1912506173       17.1678992455
  H        11.0594792176        0.7840576704       17.2612666583
  H        12.3230481246        1.7081683112       18.1292452624
  S         6.1324071507        6.4938466645       18.3120711661
  C         6.3524674792        9.1682397282       18.7340459290
  H        15.3529834853        5.3442595020        7.2928060844
  H        15.2649945118        4.2871576256        5.8807869350
  C        16.8104502635        5.7611631837        5.6491818280
  H         6.3780574038        4.5766510623        1.5900628828
  H         6.2351688120        6.1690128896        1.0564208454
  C         4.9060932702        5.5843438842        2.6654789136
  S        11.7811505209       -2.4966637996        1.1645179585
  N        12.3442169563       -2.0124554094       -0.2454912602
  C        12.5733350412        0.0365498151       -1.4669001563
  H        12.3949892543        2.1202394754       -2.1591189145
  C         5.9864409216        7.2072601865       19.9519014713
  N         6.0367703434        8.5633973415       19.9129025691
  O         6.4079706371       10.4009290345       18.5069161037
  H        16.8100128861        5.5547698878        4.5678216093
  H        16.7680055041        6.8603637772        5.8908165634
  C        17.9458360027        4.9247081957        6.3218420294
  H         4.2910363811        5.3149666609        1.9015834310
  H         4.7712956183        4.8025154862        3.4378795506
  C         4.4506816930        6.9594591709        2.9653616989
  C        12.6965300272       -0.6399681400       -2.6963933983
  S         5.3124927188        6.3351053769       21.3345886126
  C         5.8695795998        9.3237120732       21.1278262750
  H        17.6001439671        4.9137968193        7.3088362612
  H        17.9544254091        3.8692407566        6.0237967399
  C        19.3567728310        5.6022049758        6.0213142499
  H         5.0393688805        7.2771948141        3.8049817212
  H         3.3920017270        6.9406522207        3.2713103912
  C         4.5173428540        8.0285364674        1.8530927892
  H        12.2182620745       -1.6298801775       -2.6461484695
  C        13.1622290160       -0.1625472761       -3.9236650795
  H         5.0604936920        8.9777077873       21.8047694050
  H         5.5576362167       10.3224967611       20.7756729285
  C         7.2241030652        9.3868855846       21.9385426308
  H        20.1770940238        4.9328305820        6.4347573234
  H        19.2975126859        6.5745239108        6.4220661358
  C        19.6289395164        5.7138648550        4.5255765140
  H         5.4346665909        8.6613057305        1.8857173563
  H         4.4689938844        7.5598659634        0.8638018813
  C         3.4189456620        9.0904730127        2.0178770335
  S        13.7589411562        1.3042901854       -4.3813336270
  C        13.1458682499       -1.1522888529       -4.9797736836
  H         7.6898747387       10.3790440192       22.0819561240
  H         8.0042023702        8.9540325391       21.5202737745
  H         7.1549393005        8.9248345277       22.8446772248
  H        18.9142374552        6.3521820846        4.0380467826
  H        20.6688314163        6.0371434620        4.3698897454
  H        19.5903320693        4.7212193951        4.1085909895
  H         3.9111863075       10.0432382766        2.0764444180
  H         2.7085030494        8.9766773863        1.1865935298
  H         3.0096971740        8.8077193928        2.9571572404
  C        13.8995126314        0.6573050547       -5.9443780937
  N        13.6909762955       -0.6376007883       -6.1072586052
  O        12.7992165459       -2.3458770302       -4.7816726180
  S        14.6965217259        1.4381468991       -7.3180830451
  C        13.7541929721       -1.3753113250       -7.3956522986
  H        13.8518197825       -2.4048981579       -7.2025423913
  H        14.5770689174       -1.0902920412       -7.9989918899
  C        12.3918190716       -1.0861900721       -8.0966832411
  H        11.5908765222       -1.7862721403       -7.7418704325
  H        12.5529487824       -1.1385666293       -9.1240987342
  H        12.2114442375       -0.0208367198       -7.9788199493
  H        -2.8932867404       15.1291932799       16.8932021434
  C        -2.4152408383       14.1414689914       16.7766681698
  H        -3.1620879101       13.4467399836       17.1592436914
  C        -1.1801068428       14.3195634280       17.6263921956
  C        -2.1267711180       13.6499232548       15.3921718440
  C        -1.3221597014       14.5219128419       19.1534832789
  H        -0.4652808019       13.5331364433       17.4353630807
  H        -0.6299468617       15.1944394024       17.2566307930
  H        -2.3388084394       12.6273684205       15.1200145310
  H        -2.6270112603       14.3768856202       14.6752494364
  H        -1.0205750927       13.8188506394       15.1096279927
  C        -1.7107784467       13.2507680859       19.9245049517
  H        -2.1295440146       15.1598928691       19.3896393014
  H        -0.4378354188       15.0405628882       19.5191855152
  C        -2.0237448648       13.4899108667       21.3705032821
  H        -2.6774158075       12.8816579397       19.4567878879
  H        -0.9616767123       12.4724080398       19.7989195299
  C        -1.0796631981       12.9535571745       22.4412102693
  H        -2.9069691974       12.9518054548       21.6399534181
  H        -2.2479446162       14.5209782695       21.5794755637
  C         0.2299173212       13.8788198142       22.5671683172
  H        -1.5974658179       12.8498197319       23.4041991099
  H        -0.7134980296       11.9532967882       22.1315370227
  C         1.3473335939       13.2535224978       23.4221295566
  H         0.6061824303       13.9735402054       21.5352449125
  H        -0.0994505593       14.7983607710       23.0123746226
  C         1.7547246744       11.9377938663       22.6751921373
  C         0.9759111831       12.5245323615       24.6311241048
  C         2.4554916505       14.1878926494       23.6337359790
  C         1.5861380210       10.8531648774       23.4839981116
  C         2.1856000476       11.5728265020       21.4122225906
  C         1.1039775362       11.1779725814       24.7077178516
  C         0.3142814549       13.0127239401       25.7567190602
  H         2.7041460746       14.6555217758       22.6326182034
  H         2.1420035792       15.0061993126       24.2533104490
  C         3.7753323754       13.4821247728       24.2492393663
  S         2.0722631934        9.3562347928       22.7117633498
  C         2.2119218507       10.1886218346       21.2440594570
  H         2.2545975218       12.3616372620       20.6295457894
  C         0.7630484655       10.4264420917       25.8173137107
  H         0.1665977907       14.0749472024       25.7210946468
  C         0.0461161397       12.3643266425       26.8966901625
  H         4.1283183897       12.8125835254       23.4979039096
  H         3.4741094199       12.8970945002       25.1286005395
  C         4.7418251443       14.5327923607       24.5714095682
  C         2.4053061623        9.5177682096       19.8874343992
  C         0.2239913320       11.0438067616       26.9861068645
  H         0.8717070433        9.4148078187       25.8465369810
  C        -0.4469202396       12.7204236450       28.1208270810
  H         5.3765683089       14.1949048781       25.4218487665
  H         4.2745307886       15.4642551121       24.9067172561
  C         5.8042030890       14.8367720132       23.5199403299
  C         2.4028362165        8.1252382995       19.6304113516
  C         2.6947764249       10.3966419708       18.6899744974
  C        -0.1363762891       10.2917995099       28.2675975133
  C        -0.4730625368       11.6585473093       28.9649090993
  S        -0.8933548469       14.2385619817       28.9303350316
  H         6.6390561215       15.3830950338       23.9551906475
  H         5.3904272748       15.6221711680       22.8932831770
  C         6.4893181341       13.7651029114       22.6035013865
  N         2.1575375721        7.1390770879       20.5536592177
  C         2.8025930779        7.6442796677       18.3832828281
  C         3.1839816295        9.8929684408       17.4901439861
  H         2.7564246255       11.4779043084       18.7739068449
  C         1.0645925281        9.5909881983       28.8526120711
  C        -1.3909805294        9.4485284580       28.1569155545
  C        -0.7740595607       12.0440702116       30.3389345686
  C        -1.1080481627       13.3926128374       30.4373619953
  H         7.5566891552       13.9258552056       22.5728388254
  H         6.5757341079       12.7733106465       22.9187733478
  C         6.0739646247       13.6994408670       21.1516065328
  S         2.2665912535        5.6964327357       19.8191681245
  N         2.8263986486        6.2857554653       18.3464188782
  C         3.0890894343        8.4081069329       17.2240127973
  H         3.4524881993       10.5693591840       16.6861541398
  H         1.5582565236        9.0415670396       28.0685159764
  H         0.7703068854        8.8397139306       29.5852022057
  C         2.1293607831       10.3874798926       29.5903501388
  H        -1.2127524592        8.5549585527       27.5757234473
  H        -1.6234352902        9.0408396464       29.0883623250
  C        -2.5945449945       10.2606624502       27.5314562666
  H        -0.7979307550       11.3175053583       31.0433514392
  C        -1.3871703433       14.1561219783       31.7444308795
  H         5.6050610415       14.6488172496       20.8562703494
  H         5.3187133477       12.9663324139       21.0321837166
  C         7.2022873505       13.3707784691       20.1939629382
  C         3.3137774244        7.6417731439       16.0220349815
  H         2.6028148786       11.1025664477       28.9779466394
  H         1.6414287543       10.8516297761       30.4019611754
  C         3.2011992986        9.3100957045       30.1358690876
  H        -2.2862617714       10.7268897157       26.6265346502
  H        -2.8757948847       11.0001577538       28.2137029476
  C        -3.8640606747        9.4431123881       27.3615322159
  C        -1.4802754008       15.5798760326       31.7839640744
  C        -1.5989116089       13.3976137600       32.9896734497
  H         8.1791910795       13.7649022102       20.5415697776
  H         7.3732276435       12.2964318191       20.1640725116
  C         6.9780438116       13.9154474084       18.7501807599
  H         3.0786407998        6.6393417102       16.1512423865
  C         3.6819355510        8.0129250838       14.7039433616
  H         3.4280627378        8.5395083207       29.4024775897
  H         2.7858049367        8.7816044960       31.0024249798
  C         4.4693884394        9.9685596760       30.5507082364
  H        -3.7860879443        8.5796190604       26.6882552026
  H        -4.0188069751        9.0270628155       28.3497577561
  C        -4.9790400710       10.3071672752       26.7810939163
  N        -1.4121130122       16.4481050829       30.7369887279
  C        -1.7263246703       16.2276845724       33.0368802475
  C        -1.9533921465       14.0585057030       34.1747764326
  H        -1.5090225215       12.3137842522       32.9112310931
  H         6.0970577189       13.4775600128       18.2834175185
  H         6.7510189773       14.9982310166       18.8080738224
  H         7.8511143895       13.5837930158       18.1188219604
  S         3.8850449177        9.6364851057       14.1228647097
  C         3.7552482862        6.9310752960       13.6929213845
  H         4.6585286651       10.7851291567       29.8622044718
  H         4.3661965688       10.4768927240       31.4633784298
  C         5.7367471795        9.0764895157       30.5025789619
  H        -4.6256363191       10.8328250849       25.9472254672
  H        -5.0848753313       11.1836340602       27.4323632390
  C        -6.3342054352        9.6436510839       26.5817927041
  S        -1.2366734548       17.9410704438       31.3195008280
  N        -1.5870106551       17.5867699612       32.9069732280
  C        -1.9692868999       15.5341790906       34.2464831053
  H        -2.2417274038       13.4616526711       35.0214683245
  C         4.0656676331        8.8850174561       12.5518782676
  N         4.1255939940        7.5087020296       12.4853923676
  O         3.5853411657        5.7223592090       13.9837388484
  H         6.5741521937        9.7603169006       30.7630529020
  H         5.9199388593        8.7221408426       29.4460484818
  C         5.6065927202        7.7559465283       31.3067241597
  H        -6.2943619929        8.9834292888       25.7485889659
  H        -6.7050889845        9.0394383461       27.5106229323
  C        -7.3358796968       10.7369288760       26.2459648937
  C        -2.2154694584       16.2965519659       35.4186737354
  S         4.5393603291        9.6992146381       11.1008759204
  C         4.0169474700        6.6625806672       11.3312081327
  H         5.4652100341        7.9896155607       32.3213943178
  H         4.6109725761        7.3035737716       30.9520718772
  C         6.6889918314        6.7169419533       30.9827659026
  H        -6.7433380582       11.5736783809       25.7779272446
  H        -7.7434546183       10.9796639066       27.2662188714
  C        -8.4584010198       10.3520164960       25.2653649050
  H        -1.8767703369       17.2869161587       35.2716673116
  C        -2.8491162823       15.9809652242       36.6009905680
  H         4.7027755470        7.0009852888       10.5314284567
  H         4.3605045500        5.6842835098       11.6234860285
  C         2.5354529202        6.5844840164       10.8087944096
  H         7.5928773289        6.7998757041       31.5526270990
  H         6.9485081528        6.7652190248       29.9256845951
  C         6.1627368805        5.2993642772       31.2092862926
  H        -8.5641073980       11.2023720547       24.6539453667
  H        -8.2919235847        9.4633996071       24.6462499322
  C        -9.7409052857       10.0862070882       26.0381413919
  S        -3.5774488012       14.4342038521       36.9253670604
  C        -2.8881860304       16.9782700436       37.6210863054
  H         2.3509828848        5.7789633298       10.1061029255
  H         1.9405226844        6.4663300206       11.6599566028
  H         2.2470930921        7.5652598745       10.4057909356
  H         5.2704915494        5.1239938424       30.5639781669
  H         5.7179728435        5.2449728417       32.2033622719
  H         6.8790272331        4.5569559626       31.0289588229
  H       -10.2601847530       10.9870583235       26.3390988361
  H        -9.6087086741        9.3737065847       26.8585954906
  H       -10.5000250602        9.5766939930       25.4009295454
  C        -4.0086517372       15.2097088539       38.4605436567
  N        -3.6884390284       16.5466866530       38.5840200356
  O        -2.4891168262       18.1399203643       37.5018118375
  S        -4.6950202768       14.4842787666       39.8505532249
  C        -3.8160477492       17.4129803460       39.7950968755
  H        -3.9679054384       18.4289589584       39.4222938661
  H        -4.7051001976       17.1302293127       40.4510877920
  C        -2.6760671781       17.1942189214       40.8094065751
  H        -2.5907697817       18.1113146028       41.4038931805
  H        -3.0550950422       16.3993198307       41.4240357389
  H        -1.7503020029       16.9018226030       40.2553427561
