352
i=
  H         2.0226347216        1.5593163561       12.7020788400
  C         2.9536810022        2.1561907611       12.5742116570
  H         3.8323780080        1.5824503391       12.3715473984
  C         2.7861870444        2.9894866624       11.2995736097
  C         3.1598582033        3.0263166077       13.8071488429
  C         4.1394398667        3.1526101759       10.6512657926
  H         2.3356537453        4.0158775511       11.3868596588
  H         2.0449098487        2.3646359895       10.7680760573
  H         2.8379622603        2.3860460366       14.6461624791
  H         2.6029069778        3.9055697721       13.6197841867
  H         4.1633654772        3.3776973492       13.9485896454
  C         4.6180718033        1.8118724820        9.9417128768
  H         4.0235187956        3.9996136827        9.9208241726
  H         4.8429602404        3.5104317833       11.3917284045
  C         5.0719482450        2.0081709203        8.5010944852
  H         3.7947492749        1.1097925058        9.9029360237
  H         5.4278809862        1.4253494406       10.4911527927
  C         6.4532749914        2.6939512065        8.4947532396
  H         4.4336020029        2.7544809724        7.9872757895
  H         5.0430672280        1.0047704597        8.0658394042
  C         7.6464342505        1.9735319825        9.1155077102
  H         6.7298151516        3.0470896314        7.5158021614
  H         6.2567851158        3.5852036592        9.1552627013
  C         8.9451662518        2.8304051143        9.1802526655
  H         7.6926233832        1.0807322961        8.4241162109
  H         7.4281752201        1.5111187967       10.0799175574
  C         8.7013282923        4.1455203705        9.8432797874
  C         9.4618784969        3.5985761606        7.9787962712
  C        10.0448164184        2.0127074449        9.9423417841
  C         9.0040457128        5.2904771490        9.1423053626
  C         8.1238097278        4.4397966328       11.0769131697
  C         9.4283108324        4.9560040957        7.9039620652
  C         9.9746863364        3.0824298134        6.7969250559
  H         9.4812972534        1.8120435779       10.8811830131
  H        10.3785739517        1.0100896952        9.6304398025
  C        11.2794680435        2.8546619836       10.2912706390
  S         8.5046406949        6.7737385126        9.9673822220
  C         8.0263037252        5.7614863742       11.3247506372
  H         7.7766253772        3.6649134262       11.7192012328
  C         9.7463999522        5.6787139105        6.7692002229
  H        10.0942817854        2.0210958188        6.8025073648
  C        10.3617219292        3.7391878815        5.6951078599
  H        10.9744123265        3.6059443456       10.9914001499
  H        11.8052313299        3.3884076074        9.4839760438
  C        12.3912151808        2.0200463297       10.8992283246
  C         7.6396192759        6.3901937443       12.6373578772
  C        10.2876342695        5.0651668555        5.6440964862
  H         9.7404021844        6.7574782963        6.8552156490
  C        10.8220635297        3.2772914833        4.4819689053
  H        13.2970903868        2.6017470892       10.7127307523
  H        12.5125671875        1.1212730032       10.3424558066
  C        12.1736308479        1.8555191498       12.3917982033
  C         7.7776744046        7.7890290132       12.9328379058
  C         7.2589083845        5.5838244810       13.8239741508
  C        10.8030294129        5.6989776556        4.4218790482
  C        11.1154690319        4.3678211533        3.6762818994
  S        11.0658081428        1.7255289756        3.7517420349
  H        11.6124737670        2.6763324001       12.8466486647
  H        11.5172568864        1.0239204487       12.5247732345
  C        13.4455423292        1.5784292462       13.1834819929
  N         8.1410567930        8.7788840756       12.0069983359
  C         7.4564229479        8.3722946815       14.1453219414
  C         6.8967546930        6.1913839414       15.0417559592
  H         7.1985491158        4.5222443492       13.7013193901
  C        12.1250480893        6.5155679311        4.7079761573
  C         9.7599903428        6.4664831564        3.5684096041
  C        11.4513510242        3.8889953672        2.3955808641
  C        11.4813970018        2.5766339259        2.2963996536
  H        13.9852537165        2.4834371035       13.5050155209
  H        14.2799129704        1.1221899648       12.6615084725
  C        13.2218159337        0.8110651607       14.4747240834
  S         8.1684132788       10.2573039392       12.6953154021
  N         7.8103541339        9.6859629408       14.1529307282
  C         7.0421977330        7.6465283861       15.2366152337
  H         6.4760544045        5.5981120904       15.8282934598
  H        11.9389580679        7.3676087141        5.3131628784
  H        12.3481540338        6.9133234329        3.6821944588
  C        13.1722503225        5.5844014771        5.2761480243
  H         9.5000109116        7.3705138796        4.0982534184
  H        10.2245304599        6.8031264735        2.6188183374
  C         8.5218925504        5.6491616582        3.0999103675
  H        11.6041962766        4.6333221164        1.7034968715
  C        11.6967431443        1.8218471798        1.0158776350
  H        12.8381025891       -0.1806725053       14.1947632641
  H        14.1360354643        0.7828214708       15.0874110173
  C        12.1000399966        1.3523492958       15.2894514317
  C         6.9000790362        8.3293980869       16.4791760548
  H        12.7745083227        5.2333778798        6.2120590065
  H        13.5131206047        4.8262929887        4.6221401427
  C        14.4324645305        6.3809572270        5.5819935899
  H         8.1031961220        5.2373994126        4.0237114279
  H         8.8448855685        4.8301117601        2.4738293110
  C         7.3730765392        6.3270606322        2.2692267177
  C        11.6670444329        0.4228530712        0.8465898820
  C        11.9304014372        2.5385295592       -0.1977881185
  H        11.3001358002        0.7029466172       15.5248376321
  H        11.5506309595        2.0876618807       14.6891352524
  C        12.6451352484        2.0357200841       16.5902519754
  H         6.8362903512        9.3956804613       16.3704786990
  C         6.6622951636        7.9088416681       17.7916295063
  H        14.1236606037        6.9827269342        6.4507332497
  H        14.6803883601        6.9937076290        4.7333287711
  C        15.6172755894        5.4562884918        5.9331923408
  H         7.3311327333        7.3113679013        2.7165747673
  H         7.7418720123        6.4487705815        1.2456273830
  C         6.0355479940        5.5730753793        2.2134708256
  N        11.4855123630       -0.5822364912        1.8571388870
  C        11.9278798143       -0.2013562418       -0.3376435652
  C        12.1020328478        1.9592574803       -1.4640045541
  H        11.9498155980        3.5775077411       -0.0752188556
  H        13.5284482411        2.6888709140       16.2313691281
  H        13.0884140945        1.4112031041       17.3381784324
  H        11.9736280893        2.6867592090       17.0743541541
  S         6.2740475679        6.2896639790       18.3010142593
  C         6.6239037227        8.9823864335       18.8113309796
  H        15.3013869560        4.7279845779        6.6622465540
  H        15.8904606072        4.9061633170        4.9759832534
  C        16.8159441485        6.2542283725        6.4913161262
  H         5.8861650230        5.3394841500        3.2392936626
  H         6.0865857823        4.6173160773        1.7142644060
  C         4.8975228581        6.4772607027        1.6813321469
  S        11.6633206104       -2.0772429920        1.2678510272
  N        11.8203989605       -1.6076800373       -0.2928716500
  C        12.2282050323        0.4327390653       -1.5618129268
  H        12.3900473713        2.6621527401       -2.2554614228
  C         6.1404749976        7.0488540501       19.8869004298
  N         6.2040248147        8.4085009661       19.9685545105
  O         6.8937229043       10.1545369996       18.5507333055
  H        17.3090522921        6.8492719576        5.6695881976
  H        16.4059172174        6.9204332864        7.2857003051
  C        17.9051979001        5.2289766345        6.8626513247
  H         5.0101256499        6.4693829474        0.5736361383
  H         3.8714956489        6.0867413292        1.8131234759
  C         4.9509394637        7.9605117056        2.1440399147
  C        12.5456637883       -0.3350208703       -2.7412291494
  S         5.9652907985        6.1530041398       21.4626505366
  C         6.2337050495        9.2301859381       21.2447397204
  H        17.7080404458        4.8046622742        7.8459195732
  H        17.9497403867        4.4069158595        6.1390931957
  C        19.2671856444        5.8211832743        6.9079978667
  H         5.7791725664        8.4875164914        1.7143594060
  H         4.9077328593        7.9882752608        3.1928570029
  C         3.7213376570        8.6791131088        1.7360617791
  H        12.4849419834       -1.4267007599       -2.6402451794
  C        12.8282351664        0.1099828698       -4.0150535540
  H         5.6011973302        8.9061847631       21.9728546355
  H         5.8645097523       10.2213266099       20.9705985490
  C         7.7321238885        9.2828096275       21.6579451325
  H        19.8698651942        5.3419335691        7.6749679649
  H        19.1078843160        6.8952634127        7.1198394211
  C        20.1298285959        5.6893490540        5.6935332630
  H         3.5768847200        8.5438516086        0.6658534871
  H         2.7759231709        8.2301456938        2.2066388446
  C         3.8386261340       10.2080659206        2.0007579541
  S        13.1782650526        1.6873018189       -4.6495027623
  C        13.0292633333       -0.9321015102       -5.1126299304
  H         8.1764692453       10.2842266718       21.5512672440
  H         8.2771092115        8.6415767290       20.9716338994
  H         7.9252353474        9.0283980714       22.7093290965
  H        20.7698609897        4.8192124258        5.7868958789
  H        19.6433651230        5.7920979966        4.7039025075
  H        20.9199763948        6.4640232263        5.7421451798
  H         3.1970741009       10.8891170055        1.4512192086
  H         3.5161064936       10.2349585002        3.0084183167
  H         4.8527086861       10.4900800877        1.8521171165
  C        13.5508810156        0.9500996657       -6.2193370968
  N        13.5362499706       -0.3495684696       -6.2305015615
  O        12.9615242393       -2.1703586545       -4.9488984222
  S        14.2066002581        1.8606259435       -7.6337239392
  C        13.8421542162       -1.1728907212       -7.3556504098
  H        14.0485526593       -2.1761683894       -6.9754365622
  H        14.8431886179       -0.9303787782       -7.8201261287
  C        12.7109427915       -1.2656545482       -8.3242601959
  H        11.8855348079       -0.7352283200       -7.8792619268
  H        12.5419896585       -2.2353250335       -8.4451926670
  H        13.0448479364       -0.8095668841       -9.2548154763
  H        -3.4628836734       14.9992482728       16.5162169111
  C        -3.0437605925       14.0219205932       16.5816039442
  H        -3.9137809246       13.3966045938       16.6792165042
  C        -2.0598883054       13.8684960094       17.7081316293
  C        -2.3141074958       13.6775797017       15.2824395255
  C        -2.6359484380       13.8698390811       19.1259075494
  H        -1.4217590857       12.9666830789       17.4584917859
  H        -1.4327568716       14.6979976493       17.6622834573
  H        -1.4114413581       14.3016773744       15.2753528909
  H        -2.0274676213       12.6341254171       15.2999284805
  H        -2.9161673858       13.8849328276       14.4821148065
  C        -1.5809919580       13.5134850518       20.1933607092
  H        -3.4700886267       13.2153730064       19.1100051867
  H        -3.0517095810       14.8039760508       19.4886414344
  C        -2.2183635791       13.4920778006       21.5635569270
  H        -0.9200805757       12.6234436165       19.9343762460
  H        -0.8717004036       14.3174885072       20.1886697924
  C        -1.1648331363       12.9014100821       22.4760041696
  H        -3.0379082698       12.7782262530       21.5794344000
  H        -2.4142894057       14.5204371787       21.8263283678
  C         0.0757988627       13.8334478372       22.7437854722
  H        -1.6724519788       12.6465369464       23.3898292175
  H        -0.7638888049       11.9360124799       22.1438660837
  C         1.2626654093       13.2516716485       23.4772314981
  H         0.4583722774       14.2716242455       21.7931449602
  H        -0.2911754195       14.6629637459       23.2865243637
  C         1.7105559833       11.9306014325       22.8204874017
  C         0.8881447557       12.5441571536       24.6596668139
  C         2.4464986907       14.1761226280       23.6594614392
  C         1.5323769667       10.7894100552       23.5892664779
  C         2.2515445955       11.5434559330       21.6016975266
  C         0.9597218425       11.1946713527       24.7983955036
  C         0.3825713254       13.2236165289       25.7759656386
  H         2.6930411420       14.6038363696       22.7238660636
  H         2.2405374891       15.0767760223       24.2806289442
  C         3.7554135107       13.5430853071       24.0024735728
  S         1.9697302306        9.2418538242       22.8410281201
  C         2.4060455753       10.2069106198       21.4234442197
  H         2.5364334771       12.3239115894       20.8956730604
  C         0.4547530298       10.6056621869       25.8886369548
  H         0.3481132346       14.2523329099       25.7085745383
  C         0.0321522710       12.5612554836       26.9016956532
  H         4.0709888807       12.8145437106       23.2686296954
  H         3.6105410145       12.8661414067       24.8194059685
  C         4.9051602523       14.5255340248       24.4194655871
  C         2.7450634203        9.6010302246       20.0789348016
  C         0.0391098380       11.2265042760       27.0518014458
  H         0.4699376849        9.4928859545       25.8382153674
  C        -0.3811031399       12.9757952603       28.1306693872
  H         5.5607783716       14.0430698236       25.1744440124
  H         4.5258239163       15.3691446429       24.8766763386
  C         5.7570734567       15.0441917948       23.1955530809
  C         2.7474821112        8.1650294636       19.8104665875
  C         3.1537800138       10.4264598909       18.9310284023
  C        -0.2954265915       10.5523730567       28.3372007177
  C        -0.4733432270       11.9108103681       29.0314340522
  S        -0.7398851602       14.4989694330       28.8310870109
  H         6.4627679597       15.7803559970       23.5959501447
  H         5.0922417831       15.4646875788       22.3960290526
  C         6.6103919133       13.9655365999       22.5565448444
  N         2.3339932409        7.1637363115       20.7495223500
  C         3.0653090566        7.6751976343       18.5701593000
  C         3.5291552132        9.8771753285       17.6931330436
  H         3.3190970022       11.4561110439       19.0597313566
  C         0.8303463223        9.6574479369       28.8579353201
  C        -1.6943637195        9.8097690509       28.3082798353
  C        -0.8101255327       12.3471583419       30.3030814211
  C        -0.9264346337       13.7449381438       30.3660589012
  H         7.5616950729       14.3678818442       22.4254417480
  H         6.6015235495       13.1693228454       23.3078596399
  C         6.0898160255       13.3349295527       21.3212271857
  S         2.3402052852        5.7637595655       20.0070267470
  N         2.8289989693        6.2172950024       18.5578634306
  C         3.3828169105        8.4421785942       17.4086714968
  H         3.9674656432       10.5328929395       16.9810469831
  H         0.9777762061        8.7942162633       28.2625686786
  H         0.6783020848        9.2382857062       29.8125047088
  C         2.1784768177       10.3155673511       29.1185237729
  H        -1.5061513589        8.7333927186       27.9458273501
  H        -1.9905073530        9.8280145506       29.3591376513
  C        -2.8093720504       10.4718182011       27.4769168746
  H        -0.9260473972       11.5759988997       31.0453979859
  C        -1.2945899958       14.5280731823       31.5953784726
  H         5.1503403580       13.7523817925       21.0278987507
  H         5.8551402686       12.3874281211       21.7106023811
  C         7.0107957835       13.3646705143       20.1581555670
  C         3.5415241507        7.7689717450       16.1388136534
  H         2.6316132289       10.4363808838       28.1621031311
  H         2.0576595896       11.3031773992       29.6651254041
  C         3.1014360931        9.4918855145       29.9783426717
  H        -2.5487704687       10.5745168691       26.4567577532
  H        -2.9203694278       11.4208964898       27.8740371358
  C        -4.2335400574        9.7912925805       27.5360517350
  C        -1.4045581253       15.9422583976       31.7738121489
  C        -1.6753494582       13.7360521088       32.8357375097
  H         7.6222799792       14.3108939116       20.1774912575
  H         7.5509961871       12.5009163866       20.3074820012
  C         6.1922267795       13.3733288310       18.9055984192
  H         3.3948217551        6.6996737925       16.2140615619
  C         3.8458787650        8.2234796576       14.8881625585
  H         3.4871720798        8.7352086027       29.3766788752
  H         2.5627951649        8.8622946153       30.6847723337
  C         4.1804679372       10.2907530591       30.6878866500
  H        -4.1169639291        8.7325670551       27.1523247754
  H        -4.5870392498        9.6624996754       28.5477573375
  C        -5.1893672581       10.6613739444       26.7816896232
  N        -1.0955552482       16.8534179715       30.7823672210
  C        -1.8397761281       16.5335739697       32.9470734712
  C        -2.0384836188       14.3015406394       34.0653053159
  H        -1.7081220377       12.6505011401       32.7317252156
  H         6.8835317925       13.0422676688       18.1259361755
  H         5.4447419978       12.6100226332       18.8765917491
  H         5.7264060852       14.3099427406       18.6334409095
  S         4.0422290270        9.9438206344       14.4056378662
  C         3.8307069768        7.2318649926       13.7740342078
  H         4.3040402635       11.2335935076       30.1629340317
  H         3.8569023862       10.6720620295       31.6548193200
  C         5.5004889672        9.5857917185       30.7261824349
  H        -4.5653697032       11.2041280439       26.0468185603
  H        -5.5525886065       11.4210989362       27.5162945455
  C        -6.3667166531        9.9160300259       26.2334756657
  S        -1.3220971064       18.3745810699       31.3297424914
  N        -1.7814832716       17.9167590606       32.8116197463
  C        -2.1502851646       15.8144152212       34.1521632283
  H        -2.2300734471       13.6593335371       34.8831942158
  C         4.2711458738        9.2568360495       12.7507414617
  N         4.1228439153        7.8958627719       12.6261572529
  O         3.7718879939        6.0274837617       13.9938148913
  H         6.3054739845       10.1870768113       31.1666656442
  H         5.9631874981        9.6437945134       29.7103508660
  C         5.5050423531        8.1370734223       31.2315649620
  H        -5.9716110041        9.2340568500       25.4808260645
  H        -6.8415426391        9.3469801924       26.9842779031
  C        -7.4969902112       10.7808747084       25.6997924141
  C        -2.5314834715       16.5595675894       35.2250936655
  S         4.6944008501       10.1441328254       11.3397003468
  C         4.2875630641        7.1718373844       11.2695772126
  H         6.0715504261        8.1422463810       32.2054064108
  H         4.5478096658        7.6798812526       31.5003499235
  C         6.2481655662        7.1830292494       30.2787093796
  H        -7.0599862237       11.4128223277       24.9521596926
  H        -7.8688105585       11.5075144959       26.4796279011
  C        -8.6938342821        9.9662906683       25.1143628737
  H        -2.6575770554       17.5998646329       35.0118555738
  C        -2.9946377547       16.2033243749       36.4753330002
  H         5.0584352075        7.6980666277       10.7472493436
  H         4.5653580816        6.1890586522       11.5627622881
  C         2.9515408959        7.1095310765       10.4633076420
  H         7.0727623973        7.7692123047       29.8344397507
  H         5.5833508755        6.8180842000       29.4631034455
  C         6.8879899590        6.0513644564       31.0299925712
  H        -9.1233741342       10.4639755894       24.2804208320
  H        -8.3109173578        9.0565422735       24.7948154989
  C        -9.7146446190        9.7435250524       26.1964791049
  S        -3.4679025905       14.6584919821       37.0990202455
  C        -3.2523377331       17.2538149300       37.4729453080
  H         2.7199083610        8.0126076620        9.9066124240
  H         2.9075633133        6.4304890945        9.6334933227
  H         2.1436817063        6.8523217563       11.1589780849
  H         7.6859622495        6.3739407246       31.6997231560
  H         7.4257256607        5.3462803590       30.4385310370
  H         6.1089278708        5.5499004795       31.7077471929
  H        -9.5920874922        8.7320190812       26.6661758867
  H       -10.7253178460        9.5737205962       25.7155948564
  H        -9.5812147153       10.5368908298       26.9767681716
  C        -3.9183035964       15.4383529226       38.5947285394
  N        -3.7373220959       16.7892542558       38.5846270485
  O        -3.0282907987       18.4981165538       37.2602373779
  S        -4.2516044657       14.5919809656       40.1323865164
  C        -3.8815659689       17.7019797340       39.7248007003
  H        -4.2900942703       18.5990367028       39.3238887767
  H        -4.5326496212       17.3932522159       40.5594423589
  C        -2.5074497094       17.9497822905       40.4154969038
  H        -1.9764276617       17.0442247223       40.4628203055
  H        -2.0408436173       18.8151024809       39.9509566300
  H        -2.6522167480       18.3068649764       41.4094218558
