352
i=
  H         4.5534035486        1.6552575923       12.1630423811
  C         3.8900232952        2.5622596245       12.2846597585
  H         4.5594768333        3.4418703710       12.4337263659
  C         2.9652017552        2.7158550293       11.0519523532
  C         3.0774158609        2.4171013967       13.5628105814
  C         3.9274713829        2.9279478919        9.7824202369
  H         2.3861239935        3.6372813989       11.2510612678
  H         2.3418193975        1.8042601423       11.1116127412
  H         2.6216953355        1.4420406393       13.4877883778
  H         2.2341953265        3.1362296880       13.5154419406
  H         3.5621108618        2.7277102759       14.4582551679
  C         4.7193616857        1.6844832929        9.5483165703
  H         3.2469071033        3.1425580789        8.9120695628
  H         4.5439681870        3.7742948687        9.9563494214
  C         5.3562449600        1.5991386663        8.2495747912
  H         4.0368731274        0.8485239277        9.5944877951
  H         5.4580986094        1.6712283203       10.3415346051
  C         6.6475525226        2.4207212407        8.1759689228
  H         4.6584451912        2.0566049009        7.4588253131
  H         5.5217130795        0.6230224381        7.9127145739
  C         7.9754847204        1.8424973996        8.7497655863
  H         6.7836734054        2.6914671847        7.1619417052
  H         6.4414639527        3.3786509464        8.6703747687
  C         9.1956804039        2.8367587099        8.9670940765
  H         8.3334841384        1.0409997574        8.0898094011
  H         7.8337812877        1.1835419366        9.5787027944
  C         8.7150178128        4.1723834767        9.6223878467
  C         9.6932201909        3.5614118089        7.7133588881
  C        10.4701231826        2.3267383032        9.7448767784
  C         9.0778365414        5.2912225609        8.8582702126
  C         8.0159620365        4.4931196905       10.7772646623
  C         9.6493332158        4.9313008973        7.6959175060
  C        10.2448578584        3.0027092213        6.5718726902
  H        10.0716186018        1.9452451356       10.6946006808
  H        10.8826056038        1.4954965402        9.1689533526
  C        11.5827731607        3.4465174537        9.9588715425
  S         8.6332720603        6.7611898641        9.6483352287
  C         8.0869703694        5.8576921674       10.9611749576
  H         7.7006799720        3.7347446647       11.4262109036
  C         9.9568116002        5.6099143886        6.5545846197
  H        10.3711264816        1.9387022579        6.5856205985
  C        10.5117521861        3.6442112169        5.4137170895
  H        11.1051441624        4.2259508200       10.5436941815
  H        12.1140340614        3.7112662125        9.0361483615
  C        12.7423121517        2.8902930284       10.7546934939
  C         7.7139401720        6.5936046992       12.2644854491
  C        10.4125129109        4.9791054846        5.3830604313
  H         9.8703624053        6.6704559285        6.6252631419
  C        10.9088990128        3.3397757542        4.1083815768
  H        13.4516989294        3.6507457853       10.8000928171
  H        13.2212899553        1.9379534739       10.3167606068
  C        12.3962625786        2.6711740020       12.2253728731
  C         7.7242165977        7.9540367638       12.5051651543
  C         7.3149264116        5.8664998380       13.4405720761
  C        10.8307260423        5.7255075386        4.0891163273
  C        11.1178158350        4.4331401558        3.3141904506
  S        11.1909990251        1.8489856977        3.3446551577
  H        11.8674405803        3.5042955772       12.6695079152
  H        11.7261610682        1.8433116068       12.1081796091
  C        13.5453054600        2.1517888688       13.1029251883
  N         8.1191180260        8.9192973712       11.5847241792
  C         7.3821826536        8.5631808155       13.7425081255
  C         7.0156783704        6.3694111408       14.7153839882
  H         7.2158095690        4.8077544070       13.3576187342
  C        12.1398590380        6.5236246084        4.3793461199
  C         9.6940653855        6.5118663325        3.3700649683
  C        11.4247658286        4.0422789192        2.0110419392
  C        11.6134775769        2.7133537429        1.8988762915
  H        14.2728657931        2.9481297406       13.3339253077
  H        14.0476120826        1.3642228828       12.5441286780
  C        12.9980135199        1.6277726601       14.4584050424
  S         7.9773927315       10.4058088909       12.2240958911
  N         7.4405803888        9.9499991321       13.7184371080
  C         7.0597882652        7.8195541561       14.8766726442
  H         6.8954506898        5.6925770014       15.5384511059
  H        12.0397624013        7.1053078423        5.3160502003
  H        12.4820668255        7.1555283810        3.5764175218
  C        13.3013170066        5.6187488750        4.8412771479
  H         9.3283213967        7.3164268073        3.9689226543
  H        10.1038607019        7.0097873302        2.5076430324
  C         8.5491211910        5.5851312298        2.9150226139
  H        11.6997686063        4.8031522500        1.3131057453
  C        11.9481654051        1.9175212911        0.6384242501
  H        11.9244880066        1.4379366671       14.3290045749
  H        13.4140984755        0.6842774310       14.7592876584
  C        13.1334869913        2.6878448628       15.5343574320
  C         6.8415482891        8.5139802285       16.1242210088
  H        13.1102031871        5.1141284722        5.8035784930
  H        13.4357030896        4.7740865771        4.2432836714
  C        14.5719383311        6.4409578419        5.0616647787
  H         8.2143792398        5.1009460156        3.8540481275
  H         8.8053935149        4.7917310132        2.2289621953
  C         7.3874530520        6.4237751894        2.4911071971
  C        12.0341764076        0.4844251196        0.4941614368
  C        12.0624717760        2.6048484796       -0.6163136678
  H        12.7220383529        3.5707163221       15.0444011044
  H        14.1606137959        2.8783857814       15.7932599346
  C        12.3740353122        2.2151111555       16.7472460491
  H         6.8830287998        9.6050339076       16.1770244929
  C         6.5752553449        8.0494469611       17.3693601969
  H        14.3588187534        7.4215348415        5.5720849790
  H        14.8868443571        6.4994665975        4.0111585569
  C        15.6664253842        5.8048786475        5.9854789927
  H         7.0140469676        6.8625681575        3.3536531385
  H         7.5486256951        7.2929592664        1.7654929345
  C         6.3180774234        5.5284434110        1.9269545627
  N        11.9268432111       -0.4473896263        1.5381976812
  C        12.4141567707       -0.1589440747       -0.7101496643
  C        12.3895207040        2.0375239290       -1.8708862684
  H        11.9080386608        3.6667535185       -0.5959768345
  H        12.9231275326        1.3190056291       17.0254814565
  H        11.3274814216        2.0491325393       16.5658144920
  H        12.4385090635        2.8665326420       17.6063869670
  S         6.3958458301        6.3893200402       17.8877799783
  C         6.3141477527        8.9933433636       18.4797256320
  H        15.2285124195        5.7173281997        7.0080240257
  H        15.9708317277        4.8208153514        5.6687341630
  C        17.0119651052        6.5005621069        6.1415981061
  H         5.8579780889        4.9498017088        2.7346479296
  H         6.7205726868        4.8442302880        1.1775454700
  C         5.1379409384        6.3355910282        1.3099439875
  S        12.1660691030       -1.9722797286        0.9205113661
  N        12.5285344383       -1.5667988013       -0.5977366629
  C        12.6750335966        0.6121088745       -1.8505001272
  H        12.3883718726        2.6629092523       -2.7492453566
  C         6.0361325369        6.9925470889       19.5022913370
  N         5.9676099283        8.3190121844       19.5568122197
  O         6.3975732123       10.1996069844       18.4500254108
  H        17.2671823220        6.7897397773        5.0742915812
  H        16.8827027085        7.4977543577        6.5672326842
  C        18.0713551926        5.6686819380        6.8226813909
  H         5.5510018457        6.9874733948        0.5532278725
  H         4.3800237724        5.7564376520        0.8166470140
  C         4.3757711070        7.1773010352        2.3738263388
  C        13.0423824069       -0.0694234409       -3.0035015633
  S         5.6791116408        6.0414965442       20.9113800114
  C         5.9884815067        8.9739112432       20.8573369032
  H        17.7310586325        5.4595161321        7.7724220737
  H        18.1507035385        4.7191332514        6.1934715417
  C        19.4483578235        6.2410781204        6.8625594179
  H         4.9720069715        7.6000064196        3.1239932554
  H         3.6976629143        6.5195840059        2.8369819735
  C         3.7715781487        8.3803027912        1.7054224315
  H        12.7602932388       -1.0823634081       -3.0263949541
  C        13.5059572974        0.4547708662       -4.1841076872
  H         5.1184389961        8.6690940406       21.5209055242
  H         5.6983852139       10.0374997050       20.7029534040
  C         7.4292429459        8.9398566733       21.4737451963
  H        20.0979334495        5.6452999582        7.4956709982
  H        19.3810018394        7.1039329392        7.4575274328
  C        20.0668275287        6.5520478611        5.5067235133
  H         3.0993894992        7.9823964634        0.9066089158
  H         3.2505195331        8.9000338677        2.4881063707
  C         4.8344602436        9.3379408466        1.1423631455
  S        13.9799915021        2.0409141032       -4.6595871237
  C        13.6315726772       -0.6184017263       -5.2505883637
  H         7.5439848310        7.9430176233       21.7963056322
  H         7.6847827254        9.5493805903       22.2977489928
  H         8.1886116381        9.0159946360       20.7272551805
  H        19.6782916831        5.8657668933        4.7317204837
  H        19.6776400761        7.4818501104        5.0745280780
  H        21.1780622620        6.5204993139        5.4308266348
  H         4.9606566955       10.2633690608        1.7265475690
  H         5.8626059407        8.9392214490        1.2082421578
  H         4.5827808975        9.5955156158        0.1344619086
  C        14.3914567387        1.2892048231       -6.2145955351
  N        14.0727867487       -0.0216106429       -6.3762125617
  O        13.2744230184       -1.7720471031       -5.0441800026
  S        15.1561950529        2.2352208046       -7.5871449676
  C        14.2428030821       -0.6792926142       -7.6545315397
  H        14.4581363175       -1.7218466352       -7.4183328053
  H        15.1550535810       -0.3479014644       -8.2465598729
  C        12.9989697275       -0.6759933657       -8.5382544426
  H        12.7017831091        0.3223809518       -8.8093987142
  H        12.2396497927       -1.2380630339       -7.9722089961
  H        13.2335654216       -1.3603225597       -9.3701346880
  H        -2.4459797973       15.4648500840       15.9532604128
  C        -2.5597394975       14.3687669164       15.9901128231
  H        -3.6005699567       14.2764488119       16.2551616595
  C        -1.9709536799       13.6260343000       17.1956495442
  C        -2.1901572923       13.6904405469       14.6579406262
  C        -2.2632489002       14.1443539423       18.6209207389
  H        -2.3300434486       12.6271904366       17.0771564726
  H        -0.8818269218       13.6082208107       17.0603532872
  H        -3.0552459079       13.9329440116       13.9883284278
  H        -1.3310685845       14.0766462682       14.1916183078
  H        -2.0250791185       12.6446199555       14.7934233329
  C        -1.4899127231       13.4490426734       19.7035306562
  H        -3.3290916976       14.2006984941       18.9117307784
  H        -1.9095970147       15.1295479951       18.6632691371
  C        -2.1535190112       13.3690146577       21.0892548582
  H        -1.5218716654       12.3247439320       19.4538594285
  H        -0.4014020820       13.7860579291       19.7327225495
  C        -1.3388872953       12.7356457724       22.2076325456
  H        -3.1074571538       12.8134018738       21.0397914491
  H        -2.5153231198       14.2706310433       21.4833117804
  C        -0.0923926771       13.6163230760       22.5406144998
  H        -1.7531604565       12.7193900949       23.2371472737
  H        -0.9533904263       11.7174114833       22.0545528972
  C         1.1015634515       12.9625428269       23.3055095352
  H         0.4385041735       13.9011872427       21.6154251739
  H        -0.2273291998       14.5680595560       23.0990366920
  C         1.5114344353       11.6318426320       22.6258195387
  C         0.6603371157       12.3002901608       24.5744100953
  C         2.4131286467       13.8286295023       23.3967702296
  C         1.1425485110       10.5354120794       23.3757580279
  C         1.8412153706       11.2853871617       21.2987676844
  C         0.6424597085       10.9492168994       24.6239558963
  C         0.2987550844       12.9671822771       25.7815784197
  H         2.4451174739       14.3916349705       22.4756754178
  H         2.1470010004       14.6042083178       24.1040842600
  C         3.6892175234       13.1039507015       23.8483922076
  S         1.4671746331        9.0543761522       22.6451999842
  C         2.0785247676        9.9039161145       21.2240023464
  H         2.1396937266       12.0685271326       20.5648384034
  C         0.1385117940       10.3736972444       25.8029661057
  H         0.5968601008       13.9903748675       25.9160469110
  C        -0.1976530329       12.3551045642       26.9168953944
  H         3.8384966009       12.0799319495       23.4140082605
  H         3.4532686406       12.9533167012       24.9068470795
  C         5.0342970612       13.8205994445       23.6880364152
  C         2.5989213233        9.2119100749       19.9159406617
  C        -0.3067410179       11.0257137371       26.9421462689
  H         0.0854808453        9.2467507564       25.7981139554
  C        -0.6173127434       12.8041534790       28.1629393730
  H         5.8188418417       13.1943137435       24.1217863371
  H         5.1271751762       14.7079585495       24.2555874153
  C         5.4231354112       13.8573397207       22.1573156214
  C         2.4891363763        7.8512421148       19.5781271817
  C         3.1897577246       10.0372138171       18.8001326292
  C        -0.8338014953       10.3415134169       28.1554385983
  C        -0.9724997755       11.7352902577       28.9159541610
  S        -0.8093293423       14.3087663655       28.8492862802
  H         6.3606589937       14.3379537373       22.1632407272
  H         4.7369133620       14.5339188420       21.6633175994
  C         5.5012118920       12.5589275059       21.2472417577
  N         2.0916780667        6.8980357660       20.4525502785
  C         2.7656163889        7.3456728446       18.3372215742
  C         3.4344921372        9.5227231012       17.5455022610
  H         3.4249978381       11.0180236381       19.1188009253
  C         0.2493821521        9.4540485613       28.7838371826
  C        -2.0817563015        9.4331060535       27.9216019161
  C        -1.5635150685       12.1896391189       30.1358192938
  C        -1.4765085240       13.5635124015       30.2693196908
  H         6.3490885103       12.0119298546       21.4308027771
  H         4.5738784552       11.9410227048       21.2741083021
  C         5.6426091298       13.0269433054       19.7009501191
  S         2.2857737790        5.4322025773       19.8013328584
  N         2.6458291512        5.9512192484       18.3567800145
  C         3.2157552276        8.1431704401       17.2271872166
  H         3.8164470436       10.2230687150       16.8586605585
  H         0.4686787508        8.5907856112       28.1374764474
  H        -0.0271974403        8.9676774057       29.6734062859
  C         1.5111361177       10.3079927449       29.1628527718
  H        -1.7696671192        8.7557962989       27.1237426154
  H        -2.3456636275        8.8230205772       28.7551661235
  C        -3.2734592099       10.2650885258       27.5952010678
  H        -1.9556851876       11.4932499725       30.8372335145
  C        -1.7672283151       14.3480165400       31.5196623893
  H         4.9669220763       13.8866058975       19.7067757568
  H         5.1557102134       12.3371738764       18.9696767989
  C         6.9811994240       13.3588946464       19.1108628218
  C         3.3639130888        7.4192554503       15.9688068460
  H         1.8916993761       10.7549483103       28.2778719711
  H         1.2776773907       11.1179764029       29.8193163632
  C         2.5626853483        9.3223806277       29.7581538236
  H        -3.1948561978       10.6623937596       26.5755977889
  H        -3.4388648182       11.0475478787       28.3155737552
  C        -4.4890025345        9.3920033266       27.7332995737
  C        -1.6541212424       15.7462533573       31.7250710362
  C        -1.9892001015       13.5796367210       32.8005455918
  H         7.5746835871       14.0172998389       19.7717727142
  H         7.4715787909       12.3703161959       19.0769923839
  C         6.8770815914       13.8560390912       17.6508479393
  H         3.1379904981        6.3547407828       16.0316514885
  C         3.6915994855        7.9148315464       14.7040347413
  H         2.6949712109        8.5840765623       29.0224231058
  H         2.1128903661        8.8239840174       30.6477367843
  C         3.8250819963        9.9175979674       30.3257080749
  H        -4.3164251244        8.5209921911       27.1092608544
  H        -4.7054008847        9.0744131180       28.7358694817
  C        -5.7540034651       10.1023933500       27.3193855272
  N        -1.3128569703       16.5834481084       30.6827794415
  C        -1.9408183733       16.4305461039       32.9125301567
  C        -2.3139327798       14.2663370521       33.9476208788
  H        -2.0321416777       12.5049829654       32.7414164795
  H         6.9587623140       14.9225347306       17.5565999996
  H         7.6048820314       13.3277956704       17.0211348513
  H         5.8446787720       13.5565579014       17.3169561826
  S         3.9406355387        9.5431993383       14.2735485443
  C         3.7366336015        6.9502911450       13.6185779250
  H         3.6891324601       11.0035207021       30.0971280373
  H         3.8945530558        9.8228665536       31.4292849955
  C         5.1439460781        9.3796642442       29.6673542256
  H        -5.5928109160       11.1352064259       27.5335575505
  H        -6.5823235959        9.7145609424       27.9406818257
  C        -6.1434508059       10.0386909333       25.8151149452
  S        -1.2095932505       18.0388409839       31.3057756419
  N        -1.9120615779       17.7400551773       32.7368693678
  C        -2.3417571996       15.7688815529       34.0512190542
  H        -2.4385988491       13.7294897126       34.8296528160
  C         4.2742787715        8.9342947093       12.6079568161
  N         4.1562465467        7.5980507393       12.4897898020
  O         3.3726662689        5.7135986437       13.7087030541
  H         5.9161720639       10.1721692291       29.5136627393
  H         4.9603840702        8.9111741961       28.6993226862
  C         5.9049203404        8.4043207139       30.5265682702
  H        -5.1989854007       10.3425243466       25.3107707411
  H        -6.2846955581        8.9661661249       25.5667776124
  C        -7.3420222640       10.9150470569       25.5480642859
  C        -2.5710892165       16.5313845171       35.2596726596
  S         4.5887463053        9.7998594757       11.1435831710
  C         4.1134364517        6.8617217449       11.2154950807
  H         6.8895536145        8.3562200221       30.1048413909
  H         6.0568613784        8.7681814704       31.5372628509
  C         5.2346768048        7.0169139655       30.6247571034
  H        -7.1067400834       11.7875075243       24.9018873422
  H        -7.6346904459       11.3103862520       26.5686901610
  C        -8.5042316964       10.1094032182       24.9304753007
  H        -2.0690359014       17.5000604866       35.2887712352
  C        -3.1995072779       16.2351386479       36.4284639993
  H         4.8790222140        7.2324947734       10.5323354003
  H         4.4950724907        5.8603793579       11.4812621549
  C         2.7143441694        6.7652885585       10.6152384562
  H         5.4122854837        6.4661834385       29.7104630036
  H         4.1960194715        7.1842685244       30.7446448615
  C         5.6377634704        6.1497464032       31.8638121464
  H        -8.8162699244       10.6005135198       23.9857240601
  H        -8.3338398948        9.1249168183       24.6231527756
  C        -9.7503168527       10.4428061823       25.7599655201
  S        -3.8815563382       14.6931549314       37.0417596677
  C        -3.2066095951       17.3000347115       37.4903749393
  H         2.3981342490        7.6257517391       10.0477171894
  H         2.7012646640        5.7424906291       10.1281866001
  H         1.9685832939        6.6140589303       11.3693792678
  H         5.8621608580        6.6624188615       32.7188250559
  H         6.5910010251        5.6731237963       31.6269535626
  H         4.8706674077        5.4092063500       32.1817962658
  H       -10.0150605702       11.4637093993       25.6864884749
  H        -9.5059610030       10.1999428448       26.8124010600
  H       -10.4640635069        9.7209502648       25.3536206278
  C        -4.2806246606       15.5538434707       38.5048807114
  N        -3.8557939769       16.8725884636       38.5225503347
  O        -2.7071750076       18.4327840336       37.2512497086
  S        -4.9151853801       14.8413608696       39.9707264893
  C        -3.9130421002       17.6821720045       39.7542160888
  H        -3.7367818986       18.7451951932       39.4473331905
  H        -4.8421283446       17.5996247949       40.2040666840
  C        -2.8107098117       17.4831314649       40.7111637654
  H        -1.9500340752       17.0261778312       40.2891785088
  H        -2.5496328718       18.4198808788       41.0312103664
  H        -3.2049638605       16.8716053861       41.5186817016
