352
i=
  H         4.1160296098        1.1460463263       12.4829584600
  C         3.9838670555        2.1300632554       12.8043354464
  H         5.0069904531        2.4957856156       12.8869789143
  C         3.2959006508        2.8726184209       11.7157177891
  C         3.3045995597        2.2319387767       14.2208503309
  C         4.2188025414        2.9784881746       10.4544258160
  H         3.0287377972        3.8494436498       12.0733189539
  H         2.3625411941        2.3201279324       11.6505860807
  H         2.2174578057        1.9274286557       14.2082999570
  H         3.2856409269        3.2089878660       14.6039433685
  H         3.7938883614        1.5489849497       14.8896553280
  C         4.8409721827        1.6947887851        9.9669193411
  H         3.6922575818        3.5056150082        9.6750587020
  H         5.0627202519        3.5678983944       10.6286944569
  C         5.5356995179        1.9566587848        8.5994110367
  H         3.9727713121        1.0418605533        9.8699650110
  H         5.5896380977        1.1650613933       10.5599004292
  C         6.8469593094        2.6768997636        8.7378435058
  H         4.7943754645        2.5619931746        8.0186048492
  H         5.5512801238        0.9988558532        8.0679254711
  C         8.0096905258        1.9431510666        9.4709413014
  H         7.0703374038        3.0675283229        7.7481425957
  H         6.5440560596        3.5749903334        9.2072225723
  C         9.2863667548        2.8166402605        9.5327263896
  H         8.2768669803        1.0223998155        9.0058695582
  H         7.6838734569        1.5311117634       10.4521677035
  C         9.0392584654        4.1814859890       10.1963797955
  C         9.7166962362        3.5309465165        8.2514543687
  C        10.4765977047        2.0177465834       10.0107294426
  C         9.2880053239        5.2523719937        9.4111651924
  C         8.4365955143        4.5538369080       11.4227149819
  C         9.7286668241        4.8705966616        8.2041599412
  C        10.1736899659        2.9570760305        7.0590517091
  H        10.0443672586        1.5476615067       10.8585804024
  H        10.6662440454        1.1877552894        9.3390547919
  C        11.7814387942        2.7981793498       10.2438704252
  S         9.0270267813        6.7671356875       10.1691847143
  C         8.4152297685        5.9297920731       11.5376348111
  H         8.1842883290        3.7747424339       12.1504181942
  C        10.0534730370        5.5360619971        7.0757537030
  H        10.0786742329        1.9192562426        7.1052881427
  C        10.4613142571        3.6110014048        5.8893819316
  H        11.5815815932        3.8117737043       10.5657167067
  H        12.3027119805        2.8380179025        9.3192011672
  C        12.7828991887        2.1357542549       11.1858312470
  C         7.8407375224        6.6832773163       12.7623630348
  C        10.3917697290        4.9572868425        5.8041799206
  H        10.0405056917        6.5957519265        6.9381278955
  C        10.7694194533        3.1657280067        4.6264202910
  H        13.7234771560        2.6467496428       11.2034143102
  H        12.9536436812        1.1283943734       10.8628731757
  C        12.1479778754        1.9980996272       12.5606652032
  C         7.9119205113        8.1252283021       13.0567399020
  C         7.2196904944        5.8781615904       13.8266411995
  C        10.7353995241        5.6175084026        4.4833014807
  C        10.8562336373        4.2335550345        3.7254612238
  S        11.0042848185        1.6500995943        3.8762050980
  H        11.6158444525        2.8648002440       12.8294332929
  H        11.3702197174        1.2112229618       12.6153795057
  C        13.1460129721        1.8587001257       13.6651980149
  N         8.4172674346        9.0951328858       12.2422850701
  C         7.5636780029        8.5814151407       14.2470376884
  C         6.8793884187        6.4013626780       15.0583416620
  H         7.0067064608        4.8156275124       13.6560824240
  C        12.0712872740        6.3851118924        4.6020145642
  C         9.6112514387        6.5096915614        3.8349249927
  C        11.2908235986        3.8201533989        2.4263871829
  C        11.3468708371        2.4293317341        2.3850044533
  H        13.7499347446        2.7490848383       13.6934962379
  H        13.9712034516        1.1561271069       13.3965743995
  C        12.5481469591        1.4293482896       14.9881786968
  S         8.3216233384       10.5330455483       13.0069200653
  N         7.8176878274        9.9567979930       14.4676046089
  C         7.1613576251        7.7952230026       15.3842297407
  H         6.4550092869        5.7630474448       15.7889151195
  H        12.0228473980        7.1936234627        5.3445319464
  H        12.3294187674        6.8675444053        3.6638749861
  C        13.3047974960        5.6149227738        5.0160959320
  H         9.4970127933        7.4126498717        4.4479855011
  H         9.8744789282        6.7913636621        2.8195478536
  C         8.2434158514        5.8890413561        3.7786429155
  H        11.6133822198        4.5356133341        1.7093118548
  C        11.5740028713        1.6975877292        1.1482397992
  H        11.4545270275        1.5227500981       14.9976839607
  H        12.8724948143        0.4440061084       15.3330219366
  C        13.1295109552        2.3530729732       16.0904107929
  C         6.7734821351        8.4019756654       16.6388096087
  H        13.2579918081        5.2192317593        6.0291551791
  H        13.4299978584        4.7465603366        4.4354550612
  C        14.5402402915        6.5052000766        5.0805560069
  H         7.9261251243        5.4251257927        4.6366417644
  H         8.3063276679        5.0254187750        3.1140806583
  C         7.2359612792        6.8363195472        3.2075062595
  C        11.6593150966        0.2787536743        1.0536623978
  C        11.6848067474        2.3937486512       -0.1469473783
  H        12.8714712763        3.4178648969       15.9454807119
  H        14.2358791013        2.4471773203       16.0928166330
  C        12.6853032542        2.0530500293       17.4851661974
  H         6.6541254981        9.4305289452       16.6595148248
  C         6.5132034942        7.8533501330       17.8847787907
  H        14.3581810569        7.3236342359        5.7618315639
  H        14.7375686984        6.7818477895        4.0443734577
  C        15.7891663660        5.6951948578        5.4820045144
  H         7.2087527166        7.6400253727        3.9689415992
  H         7.4794942692        7.3607061371        2.3030991945
  C         5.9012464485        6.2093821358        3.0615969205
  N        11.5133538066       -0.5779401637        2.1087847423
  C        12.0311621953       -0.3818361603       -0.1257468505
  C        11.9657404363        1.7236240138       -1.3686174750
  H        11.4179820242        3.4487853867       -0.1474775734
  H        11.5606170865        1.9502875106       17.4587570232
  H        12.7598846655        2.8597884134       18.2249398017
  H        12.9997068091        1.0500839217       17.9085608764
  S         6.4265784194        6.1729534945       18.2470036473
  C         6.3555650489        8.7888020118       19.0319347902
  H        15.7818374985        4.7555117409        5.0250289818
  H        16.6377292874        6.2100551473        5.0766223973
  C        16.0646835932        5.4960041196        7.0285634682
  H         5.2600440767        6.3568954618        3.8970059563
  H         5.9390481207        5.1350373975        2.8723276894
  C         5.0268559762        6.9247297482        1.9317205675
  S        11.5821310288       -2.1067080543        1.5895430841
  N        11.9228654089       -1.7798257368       -0.0025966004
  C        12.2529099502        0.2460276412       -1.3222817978
  H        11.8867006411        2.2491516062       -2.2952053053
  C         6.1351944242        6.7202739261       19.9243159315
  N         6.0864327503        8.0559017381       20.1233232223
  O         6.6319356953        9.9683857659       18.9907194220
  H        15.9706800323        6.4405589445        7.4852876203
  H        15.4377707851        4.7701102581        7.3776808552
  C        17.4217271992        5.0166137428        7.2907675844
  H         5.3300195439        6.5189344483        0.9534574049
  H         3.9497379075        6.6806696027        2.0787131159
  C         5.0668730561        8.5094760269        1.8947181301
  C        12.5030870623       -0.5069725918       -2.5150339635
  S         6.0772086410        5.6722431949       21.3513392710
  C         6.0919327732        8.6921590160       21.4239495962
  H        17.4212331934        4.5813766882        8.3087790653
  H        17.4951385650        4.1614972650        6.5335442825
  C        18.5631891398        5.9869046908        7.1713013975
  H         6.0961574813        8.8802856984        1.7050514360
  H         4.9080302611        8.9112739337        2.9547594679
  C         4.0112521523        9.0900158598        0.9629104630
  H        12.2837459870       -1.6206625768       -2.4547128133
  C        13.0006993168       -0.1524495590       -3.7080845457
  H         5.3353892785        8.2644819249       21.9956992420
  H         5.7152384601        9.7085771174       21.4372120127
  C         7.4234381935        8.5815565999       22.1185698150
  H        19.0620694482        6.2246684324        8.1632023969
  H        18.1025744638        6.8466782129        6.7065299166
  C        19.6525415195        5.6758287491        6.1701782564
  H         4.3675825734        9.1456899003       -0.0442919320
  H         3.1169106392        8.4647407515        0.9148999610
  C         3.6666803194       10.4526263847        1.3763210848
  S        13.3673051906        1.4159710904       -4.2228216090
  C        13.1812750936       -1.1956539250       -4.7365237815
  H         8.1652771295        8.0892728197       21.4737038185
  H         7.2534677729        7.9137460204       23.0302997267
  H         7.7864166155        9.5270856307       22.4388078587
  H        20.2289693284        6.5426570465        5.9208030199
  H        20.2878799620        4.9772459123        6.4873841669
  H        19.2167171385        5.2679850282        5.2842991294
  H         4.3364395850       11.1491184099        0.8239309229
  H         2.5867839211       10.6697193825        1.2518323981
  H         3.8166153858       10.6266261639        2.4118732047
  C        13.7904628678        0.7459121670       -5.7783430464
  N        13.8518162079       -0.6144979687       -5.7385388478
  O        12.8960818261       -2.3967005375       -4.6316247442
  S        14.4676005458        1.5263026979       -7.2135045767
  C        14.2152946118       -1.4904634730       -6.8943248923
  H        14.4950158939       -2.5073059343       -6.5760093488
  H        15.1292684184       -1.1998954775       -7.3817030788
  C        13.0295244858       -1.5903711492       -7.8945538610
  H        13.4827607532       -1.6718471939       -8.9108647388
  H        12.5583613348       -0.5713865712       -7.8575735935
  H        12.4221824869       -2.4644522511       -7.8451874435
  H        -3.7355873130       14.5028048695       16.8890403040
  C        -3.1719332468       13.5848773519       16.6898118604
  H        -3.8127462166       12.7103288832       16.8320096607
  C        -1.9028534817       13.6633615323       17.6006014178
  C        -2.8024807911       13.5528093500       15.2476308925
  C        -2.1224579424       14.1677447417       19.0100593012
  H        -1.6637240096       12.6476962935       17.7257059076
  H        -1.1278509600       14.1834952158       17.0483897142
  H        -2.9302005235       12.5592334465       14.8091462918
  H        -3.3192030615       14.2005022353       14.6300848129
  H        -1.8305472857       13.8393449161       15.0160504429
  C        -2.0189977879       13.0389697826       20.0629254138
  H        -3.0720242235       14.6075949207       19.1163692687
  H        -1.2719653659       14.8862706671       19.0669902859
  C        -2.5198706463       13.4739570878       21.4827339287
  H        -2.8078219437       12.3301254921       19.6667396049
  H        -1.0168694040       12.6987489887       19.9231060324
  C        -1.5801428983       12.9364573207       22.5527065073
  H        -3.4682851768       12.9882933431       21.7715295394
  H        -2.6363543800       14.5630775090       21.5410712200
  C        -0.3255130141       13.8066289523       22.7013515306
  H        -2.0648659086       12.8924305329       23.5534269326
  H        -1.2249453865       11.9529047901       22.3435420564
  C         0.8122734325       13.0973355475       23.4438849395
  H         0.0005404210       14.2726760399       21.8086489090
  H        -0.6800622466       14.6718943748       23.3328951502
  C         1.2952038154       11.7659800951       22.7725679651
  C         0.4732567376       12.3288941796       24.6887941714
  C         2.0881460663       14.0137846382       23.5499418157
  C         1.0493678806       10.6167268525       23.5177085596
  C         1.6971097142       11.4339083975       21.4353488088
  C         0.5292738196       10.9600330526       24.7352231531
  C         0.0082411186       12.9456481731       25.8316307040
  H         2.4025231023       14.4095830160       22.5454424721
  H         1.8288642320       14.9345319633       24.1250215297
  C         3.3243643626       13.3477247431       24.2333793058
  S         1.6563914266        9.1925117435       22.7935726220
  C         2.0160932739       10.0808885344       21.3110628574
  H         1.7359792231       12.1349739130       20.6480092087
  C         0.2383763635       10.3521553581       25.9286330054
  H        -0.0884470568       14.0087182533       25.6116720089
  C        -0.2308116818       12.3180107694       26.9895953624
  H         3.6132912197       12.5064585321       23.6898344026
  H         3.0765056102       12.9630427669       25.1908820888
  C         4.7005634133       14.1455930070       24.4830573286
  C         2.5364130760        9.3718908275       20.0456329642
  C        -0.2241800065       10.9655627811       27.1189160603
  H         0.3807762152        9.3240804551       26.0929769120
  C        -0.6199522656       12.8049095391       28.2686520133
  H         5.2652403930       13.6052868630       25.2295075625
  H         4.3517164015       15.1181623830       24.8940644839
  C         5.6465106875       14.2235761557       23.3122321654
  C         2.4969805963        7.9521820393       19.8078752791
  C         3.1820122775       10.1791640595       18.9799246693
  C        -0.6447923764       10.3672173879       28.4156607630
  C        -0.9015035076       11.7211798554       29.1027531975
  S        -0.7605674230       14.3662222807       29.0206139629
  H         6.3865646413       14.9375821498       23.6061511620
  H         5.1344349630       14.6289345877       22.4757985643
  C         6.3200898722       12.9261380517       22.8201874651
  N         2.1245648583        6.9624431759       20.7847279290
  C         2.8239787885        7.4097299382       18.5441041095
  C         3.3994107466        9.6620914145       17.6926555208
  H         3.2363086649       11.3014448066       19.1156483385
  C         0.6352854673        9.6432783453       28.9620871178
  C        -1.8993106387        9.5258746717       28.3256137499
  C        -1.2572794982       12.2062671932       30.3560730556
  C        -1.1485997247       13.5848350099       30.4626805421
  H         7.4018487807       12.9498726495       23.0663031904
  H         5.9296342610       11.9962925159       23.3585660201
  C         6.1784204645       12.6640991725       21.3546746846
  S         2.1195613887        5.5600001071       20.0121318037
  N         2.6969893109        6.0135614926       18.5321690801
  C         3.2662404884        8.2008474797       17.4358126651
  H         3.7350937507       10.3411082351       16.8953160605
  H         1.0637181678        9.0721025972       28.1614716772
  H         0.2721019194        8.8983550136       29.6840157461
  C         1.6782025108       10.5216047242       29.5937665278
  H        -1.6632244187        8.4581800646       28.0319099730
  H        -2.3879239456        9.5832906663       29.3218355220
  C        -2.9814681051       10.2642193355       27.4880874884
  H        -1.2729630496       11.5337217588       31.2400639939
  C        -1.4759868765       14.4146878410       31.7352689780
  H         5.2544785929       12.1823135796       20.9564021249
  H         6.9887460470       11.9436522780       21.1934282783
  C         6.4328761212       13.8941293133       20.4001157695
  C         3.4254423952        7.5304945012       16.2047767956
  H         2.0310824052       11.4248236335       29.0065681652
  H         1.4008708472       10.7904147352       30.6373947054
  C         2.8778329983        9.6093166425       29.9334478938
  H        -2.5905683291       10.3853553464       26.4644978813
  H        -3.0178458291       11.2654051740       27.7683516324
  C        -4.3033814451        9.5842069445       27.2630894992
  C        -1.6607982012       15.8719619676       31.8511843151
  C        -1.8654123090       13.6973372326       32.9806652457
  H         5.6271772241       14.6451839529       20.4142639483
  H         7.3326724557       14.4009579463       20.5956730377
  C         6.6400795546       13.4059123917       18.9537321886
  H         3.3869342100        6.4179723438       16.2943738465
  C         3.7735795177        7.9424322777       14.9273919008
  H         3.3312365715        9.1704535715       29.0062212416
  H         2.4303180995        8.8057057440       30.4757606798
  C         3.8187993175       10.4584766515       30.8779129679
  H        -4.2843782758        8.7379289308       26.6331471616
  H        -4.6182328774        9.1948825666       28.2172358915
  C        -5.3982471324       10.5836845291       26.9007465596
  N        -1.5439705920       16.7766909298       30.7910160257
  C        -2.0085802326       16.4933487908       33.0607693339
  C        -2.1044716576       14.3439178743       34.1748903419
  H        -1.7905170903       12.6261984792       33.0866282865
  H         7.1830727624       14.1675177522       18.3772017146
  H         7.4082745139       12.6221384943       18.9029633583
  H         5.7026238373       13.1564451106       18.4437619009
  S         4.0821976589        9.5164118112       14.4872511460
  C         3.9192995324        6.8989402608       13.8973831965
  H         4.0667052369       11.4032130453       30.4619974965
  H         3.3353665966       10.6467626277       31.8332522385
  C         5.2453676982        9.8732456689       30.8493660424
  H        -5.1120829254       11.2308043388       26.0918779942
  H        -5.5024056461       11.2603150912       27.7894157423
  C        -6.6814108136        9.8864784761       26.4485093707
  S        -1.5442844197       18.2893388999       31.3484479154
  N        -1.9721056377       17.8910097532       32.8875820528
  C        -2.2276046577       15.8285278142       34.3021836585
  H        -2.0770510823       13.7154907422       35.0140243252
  C         4.2721172336        8.8744846715       12.8732125716
  N         4.2944578334        7.5540685212       12.7844707982
  O         3.8218838098        5.7102136542       14.1052845269
  H         5.8847701166       10.5290805967       31.4210958189
  H         5.6813070154        9.8685140481       29.8359721882
  C         5.2613865118        8.4289456760       31.3642598985
  H        -6.4129596100        8.7623065172       26.2934138185
  H        -7.4155951345        9.8053790517       27.2364675440
  C        -7.3329677943       10.6971337783       25.2610422185
  C        -2.5133441960       16.5567112048       35.5048439088
  S         4.7581391089        9.7411214486       11.4458164296
  C         4.3589031467        6.7585629548       11.5280132235
  H         5.9056109135        8.3408540110       32.2359748527
  H         4.2597042603        8.0977271262       31.6357839264
  C         5.9680794877        7.4652323626       30.3416544327
  H        -6.7815275547       10.6557782089       24.3711795994
  H        -7.3539270394       11.7072990295       25.5602779932
  C        -8.7115890354       10.1975681768       24.9053271375
  H        -2.2610262228       17.6230297321       35.3762269179
  C        -2.9185835952       16.1826597752       36.7696864516
  H         5.0808281091        7.2179730781       10.8325971557
  H         4.6875314386        5.7128573535       11.7879253930
  C         2.8948162376        6.6254874889       10.9500758394
  H         7.0697096955        7.7221895659       30.3423740353
  H         5.5951739819        7.5375272980       29.2968881146
  C         5.7991253332        5.9438763404       30.7036406858
  H        -9.1040610023       10.8611972687       24.1409821884
  H        -8.5840352798        9.1903572641       24.4229874877
  C        -9.7121353871       10.1487208395       26.0617213427
  S        -3.4619544664       14.5888808689       37.2810810991
  C        -2.9207364891       17.3120219825       37.6902138802
  H         2.7359390686        5.6674417499       10.4678251668
  H         2.1798705556        6.6912181818       11.7568584552
  H         2.5636507652        7.5197709353       10.3226762112
  H         5.4552968469        5.2836004385       29.8492287598
  H         5.0969342656        5.8890726769       31.5241663315
  H         6.7127773171        5.4506431836       31.0978340998
  H        -9.6294539272        9.2118532591       26.6028559466
  H       -10.7566732135       10.1595874437       25.6754557402
  H        -9.4796848167       10.9608771833       26.7459725372
  C        -3.7717942894       15.4834360655       38.7979485920
  N        -3.4347446279       16.8102569486       38.8494843388
  O        -2.7473304079       18.4589301527       37.3973149350
  S        -4.4687363717       14.7273937835       40.2604314749
  C        -3.6376490339       17.7072282229       39.9908798180
  H        -3.7486171172       18.7214758899       39.6914766142
  H        -4.5131845525       17.4491290754       40.5946936140
  C        -2.4535559200       17.6679553903       40.9923050392
  H        -2.3099981640       16.6667794063       41.4105538192
  H        -1.4893690652       17.8767833249       40.4848946404
  H        -2.4382603783       18.4230518948       41.7911023797
