352
i=
  H         2.9172521909        0.6947583824       13.4353977482
  C         3.4702604827        1.4917019389       12.9463775973
  H         4.4541625839        1.0681554636       12.5873159553
  C         2.6610331411        1.9491309231       11.7365235005
  C         3.8482325660        2.6727520704       13.8397706225
  C         3.5975429235        2.2642823819       10.6160841649
  H         2.0575461188        2.8207446432       11.9389923960
  H         2.0827085839        1.1042257024       11.4052560722
  H         4.2130011726        2.5177263034       14.8621612098
  H         2.8598014156        3.1393166603       14.1880969391
  H         4.5091471421        3.3553222287       13.3239333492
  C         4.1534128699        1.0561700631        9.7783104081
  H         3.1070398109        2.9757303999        9.9357961080
  H         4.4278413600        2.7144658769       11.1153756526
  C         4.8200127370        1.4377199494        8.4101140137
  H         3.3814695026        0.2808885416        9.6050094322
  H         4.8544103392        0.5183459347       10.4117699670
  C         5.9915678034        2.4525609154        8.6078963857
  H         4.1385417073        1.6888318121        7.6624039660
  H         5.2891983489        0.5746333177        7.8517563816
  C         7.2964633444        1.7952984929        9.2327309575
  H         6.2067968326        3.0812685214        7.7739457797
  H         5.5690280475        3.1781720564        9.3297014704
  C         8.4837311440        2.6781700251        9.2864460085
  H         7.5644368595        0.8632053570        8.6656342651
  H         6.8607771353        1.6525925608       10.1512175765
  C         8.1123530022        3.9770464270        9.9645902940
  C         8.8982664479        3.3927363925        8.0480627417
  C         9.6926168944        2.1144313639       10.0710472378
  C         8.2383421429        5.0918674148        9.1797044888
  C         7.6294475731        4.4045634076       11.2562121269
  C         8.7752621501        4.7173760173        7.9638335573
  C         9.3830455692        2.7581328130        6.9074813182
  H         9.4390934296        1.5909083734       11.0231060408
  H        10.0208122974        1.2781749851        9.4546893872
  C        10.8469499385        3.0918160957       10.3918047399
  S         7.8982018980        6.5811980280        9.8302644096
  C         7.4227660166        5.7341336674       11.2975189577
  H         7.4800619800        3.6681832929       12.0229220554
  C         9.3246475711        5.3605407784        6.8991379659
  H         9.5633496108        1.6719494341        6.9535568984
  C         9.8551009148        3.3874863622        5.8227920639
  H        10.5364404006        4.0623171570       10.7307905386
  H        11.3502549388        3.3926094397        9.4210126646
  C        11.8251438492        2.5013613791       11.3387261365
  C         7.1944272730        6.5754876709       12.5092894239
  C         9.8914362221        4.7389819701        5.7714819995
  H         9.3944454775        6.4768881627        6.8008672524
  C        10.5058710250        3.0669294435        4.6363510463
  H        12.7475639221        3.1643590406       11.2587493640
  H        11.9736092936        1.5146315046       10.9840340420
  C        11.2297065049        2.4098684608       12.7388264941
  C         7.4369271624        7.9607080514       12.7089932370
  C         6.6116540647        5.8730625635       13.6750783752
  C        10.3583636220        5.5028861521        4.5222382281
  C        10.7422226182        4.1479106269        3.8392069344
  S        10.9202353581        1.6009082397        3.8935466088
  H        10.4762659705        3.2380043554       12.9213337127
  H        10.7118624462        1.4373606706       12.8613484176
  C        12.4720603237        2.4324902174       13.6479503699
  N         7.8640968211        8.8484768984       11.6998287838
  C         7.2519777419        8.5804610583       13.8989640584
  C         6.3897643995        6.5184303658       14.9369764843
  H         6.3754153259        4.7956259306       13.6099376883
  C        11.5638916714        6.4264638489        4.8185836384
  C         9.2788442624        6.1455867810        3.6841496531
  C        11.2251321510        3.7841762066        2.5508835034
  C        11.3251734084        2.4185794315        2.4184070467
  H        13.0616191001        3.3228759822       13.4255281591
  H        13.0458172333        1.4996733574       13.4683972634
  C        12.1924557549        2.5842252053       15.1616133996
  S         7.8740677633       10.3536454767       12.2906933177
  N         7.4020693610        9.9397538487       13.8711128228
  C         6.7249973839        7.9549819471       15.0679295266
  H         5.9331889547        6.0031621814       15.8073793421
  H        11.3397264029        7.3438576513        5.2983515796
  H        11.8783447590        6.7464698632        3.8163901118
  C        12.6519172536        5.7300929769        5.5356455502
  H         9.0213835065        7.2249292384        3.9263845515
  H         9.7771953913        6.2853148342        2.6716646349
  C         7.9017278903        5.3400645162        3.5902451087
  H        11.4559881287        4.5914529974        1.8334840280
  C        11.6481342800        1.6690119257        1.1662554550
  H        11.7666294078        3.5664369956       15.3163044024
  H        11.4250523419        1.8614664013       15.4959707625
  C        13.4719943121        2.4793633244       16.0322516258
  C         6.6831360123        8.6599840726       16.3248637516
  H        12.2682150087        5.3249258194        6.4333687316
  H        13.0095526748        4.9162777037        4.8746326017
  C        13.9643496602        6.4982811523        5.8148275472
  H         7.1815551100        5.8568333663        4.1793778057
  H         8.0524178908        4.3669243906        4.1332369342
  C         7.3235864096        5.3525404790        2.1423575963
  C        11.6456225299        0.3355479373        0.9941369261
  C        11.9214108038        2.4606498502       -0.0782243877
  H        14.1522667534        3.1904506680       15.5433984268
  H        13.9400564213        1.5236630750       15.9499792797
  C        13.2991675002        2.8111849152       17.4970278667
  H         6.9310307119        9.7237628317       16.2208364713
  C         6.4392621245        8.3345685480       17.5919957586
  H        13.6864085801        7.3582735304        6.4528076944
  H        14.2582954264        6.9474419718        4.8414262453
  C        15.1620101031        5.6335568746        6.4132181617
  H         7.5501295119        6.2750103288        1.5806127841
  H         7.8961674549        4.5710341431        1.6095692089
  C         5.8607512516        4.9169885705        2.0263365626
  N        11.4614993514       -0.5487120040        2.0341770805
  C        11.9262232199       -0.2933849160       -0.2383040695
  C        12.2365914949        1.8952314161       -1.3088976260
  H        11.7750584792        3.5169904431       -0.0622671149
  H        13.8147244071        3.7415808458       17.8614360222
  H        13.8645700119        2.0228796424       18.0166729467
  H        12.2025854193        2.6743055319       17.8320246157
  S         6.3421636665        6.7491356000       18.2831914702
  C         6.3977300603        9.4584627604       18.5379376134
  H        15.5408451523        6.1443633574        7.2532552979
  H        14.6312603380        4.8093283662        6.9115513231
  C        16.2875902087        5.3541387372        5.3960167611
  H         5.7337631435        3.9063999968        2.4368133890
  H         5.4762498204        4.8608850887        1.0034471535
  C         4.9115229416        5.9268495376        2.6431845826
  S        11.5872267444       -2.0486853832        1.3983241340
  N        11.9024917746       -1.6416841437       -0.1425131707
  C        12.2858680517        0.4186722984       -1.4080664838
  H        12.2109521851        2.4795330753       -2.2165633276
  C         6.0746362029        7.5893588773       19.8166875747
  N         6.1744232737        8.9539817317       19.7832696515
  O         6.3587634906       10.6467134341       18.2859061293
  H        16.0578999945        4.5495200704        4.7787727529
  H        16.4549761557        6.2600139910        4.7487906978
  C        17.6122277444        4.9463751058        6.0552515883
  H         3.9117024788        5.5931345220        2.4747680231
  H         5.0007842036        5.9053544959        3.6968053101
  C         5.1369498759        7.3133607814        2.2679734449
  C        12.5706945211       -0.3846048728       -2.5798085820
  S         6.0548612691        6.8812165237       21.4448645631
  C         6.3929934810        9.8447801800       20.9021714986
  H        17.2582040479        4.3645493303        6.9200139183
  H        18.2239221710        4.3606087788        5.4812506544
  C        18.2872316903        6.2372324301        6.6207007306
  H         5.0193122278        7.4499988150        1.1823478867
  H         6.1448290215        7.5866513407        2.6595924019
  C         4.0402631736        8.2280353719        2.8939314314
  H        12.1830444180       -1.4221278403       -2.5832736584
  C        13.2006152951       -0.0278158793       -3.7605525045
  H         5.6773986218        9.5133404548       21.6631192426
  H         5.9822202725       10.7855963320       20.7034029364
  C         7.9454708970        9.8329844520       21.4410662184
  H        17.6270257880        6.8752320283        7.1985871134
  H        18.5343112981        6.8057447491        5.6779001044
  C        19.6401694670        5.9715835000        7.3635886390
  H         3.4365781946        7.6714011210        3.6085039269
  H         4.5507774306        9.0114242876        3.4174467660
  C         3.1465979146        8.8400409960        1.8917689260
  S        13.7925875088        1.5375946011       -4.1831599306
  C        13.2969298263       -1.0396843968       -4.7982398710
  H         8.3092275958        8.8690946302       21.6057139451
  H         8.0681806522       10.3491140945       22.4062049952
  H         8.4521890579       10.3540120308       20.6432638699
  H        19.5850431512        4.9355638574        7.8051940693
  H        20.4856687901        5.9877205276        6.6501003006
  H        19.8206845830        6.6924222849        8.1336907399
  H         2.4878405085        9.5702546495        2.3053462075
  H         3.6641228930        9.4993583277        1.1911511231
  H         2.5619232360        8.1757240296        1.2578773372
  C        14.1510240711        0.8401403479       -5.8112065921
  N        13.8946381825       -0.4671852170       -5.9056486681
  O        12.9119623261       -2.2152949627       -4.7105403021
  S        15.1151458884        1.6102883809       -7.1059251247
  C        14.1990987644       -1.3073669437       -7.0641354831
  H        14.1238159368       -2.3374674103       -6.7586355021
  H        15.2025886464       -1.1974739018       -7.4923202445
  C        13.1561136543       -0.9868726064       -8.1359460525
  H        13.3722413265       -0.0922492015       -8.7213861173
  H        12.2460413571       -0.7749373195       -7.6694055431
  H        13.1549171069       -1.7907353766       -8.8625676773
  H        -3.8896652389       14.2479584213       17.0812213702
  C        -2.9769083645       13.6994041234       16.8492752880
  H        -3.1874331932       12.6010366002       17.0891098984
  C        -1.8726934610       14.0755014281       17.8743807846
  C        -2.5899638939       13.9113957549       15.4738113789
  C        -2.2408631988       14.1823513385       19.2773702436
  H        -1.0531422718       13.2947578743       17.8396069003
  H        -1.4278852740       15.0181940563       17.5566729914
  H        -2.1565480666       12.9765999970       15.0950164104
  H        -3.4761872661       14.0334750455       14.8231845059
  H        -1.9564120351       14.7483324030       15.2736483714
  C        -1.7665004443       12.9929527428       20.0358296005
  H        -3.3136517653       14.4075043125       19.3724498292
  H        -1.6783102728       15.0256231494       19.6742009274
  C        -2.0687178228       13.0586577839       21.6139356655
  H        -2.0568961437       12.0014737412       19.6313386875
  H        -0.6668644851       12.9404302455       19.9401606539
  C        -0.9120795100       12.5787220730       22.5354774405
  H        -2.8830431072       12.3020108951       21.6621375088
  H        -2.5944514208       13.9785347584       21.9809369625
  C         0.3322787598       13.5032101121       22.6021460488
  H        -1.3223675046       12.5518970094       23.5571851179
  H        -0.6683979670       11.4808815671       22.2466849841
  C         1.5742051301       12.8260364978       23.3622621780
  H         0.6354386396       13.8582913577       21.6065964115
  H        -0.0921672390       14.3406815334       23.1204134083
  C         1.9307344592       11.5122991212       22.7029668890
  C         1.2737056980       12.1683194385       24.6765068012
  C         2.8177978416       13.7885444881       23.2889216536
  C         1.9689960972       10.4090587764       23.5836159315
  C         2.3875550360       11.1262371151       21.4062580304
  C         1.4672800743       10.8261355748       24.8422531734
  C         0.7279581060       12.7696745671       25.7657815113
  H         2.9088874753       14.0184402366       22.2359671992
  H         2.6063391442       14.6787885000       23.8495885046
  C         4.1366750545       13.1337488680       23.6395914537
  S         2.3633963864        8.9517636087       22.8368313660
  C         2.5559315630        9.7635902697       21.2827808355
  H         2.4607530144       11.9077510295       20.7594512647
  C         1.0642556980       10.1991408861       25.9733206458
  H         0.4400806911       13.7840985122       25.6573538271
  C         0.3789199623       12.1372854830       26.9468271336
  H         4.4222294065       12.3681938425       22.8909633248
  H         4.0755091624       12.6174636890       24.6179059843
  C         5.1684008716       14.2378075951       23.6763381603
  C         2.7647567499        9.0729538253       19.9673455444
  C         0.4070267483       10.7607752169       27.0793031431
  H         1.2204671438        9.1433946319       26.0204005260
  C        -0.1066189830       12.5482219254       28.1726938967
  H         6.0580682376       13.9763417716       24.1748475551
  H         4.7066462302       15.0409098294       24.2528091554
  C         5.7010097951       14.8583696813       22.3631950088
  C         2.7320818659        7.7153656690       19.7291102750
  C         3.0369932855        9.9047753695       18.8145312987
  C         0.0006515253       10.1570893015       28.3891080877
  C        -0.3436280611       11.4914965844       28.9911663194
  S        -0.3845105464       14.0297480318       28.9088406623
  H         6.1487342593       15.8361795260       22.5020217638
  H         4.9769123113       15.0694422458       21.6147097942
  C         6.9052773422       13.9890401526       21.9058825497
  N         2.5921536948        6.7035032520       20.7015249834
  C         2.9186606651        7.1364212571       18.4610714611
  C         3.2082625396        9.3600277493       17.5514221329
  H         3.1616981219       10.8956409483       19.0156183191
  C         1.1926813747        9.4639553433       29.0735133333
  C        -1.3124914701        9.3269359454       28.2690971867
  C        -0.7968186521       11.9110911508       30.2894324454
  C        -0.8480863685       13.2605337247       30.4300719394
  H         7.7448906500       14.5290506858       22.1984982474
  H         6.8266061440       12.9685506797       22.4169929773
  C         6.6493165426       13.8540749193       20.4226317213
  S         2.6836282300        5.2398364904       19.9430397490
  N         2.7084354547        5.7570753545       18.4348145471
  C         3.1758988579        7.9125255897       17.3148773321
  H         3.3997208565       10.0215346343       16.7623780628
  H         1.5761131214        8.6187478242       28.5720060351
  H         0.7608691962        9.0606656927       29.9373694228
  C         2.3792726622       10.3796776834       29.4644675759
  H        -1.0560114404        8.4512318331       27.7608132399
  H        -1.5892012395        8.8979248129       29.2106600407
  C        -2.5254631398       10.1221179714       27.7788720118
  H        -0.8703563500       11.2017352081       31.0421175562
  C        -1.1332579824       13.9235858692       31.7562087478
  H         6.4304802776       14.8436325103       20.0673462903
  H         5.8219895959       13.2022729316       20.1707520077
  C         7.9120609339       13.4419720649       19.7430369724
  C         3.2257300252        7.3357180489       16.0310273880
  H         2.7373931927       10.8905357950       28.5240269558
  H         2.1796532322       11.0377243773       30.2955295935
  C         3.5960595581        9.5646633515       29.9647829226
  H        -2.1821835657       10.6922893073       26.9928610905
  H        -2.8322973721       10.8424460277       28.5170725867
  C        -3.6488520472        9.1937351866       27.4274164688
  C        -1.2838670726       15.3366393739       31.9921766578
  C        -1.3185575631       13.0826500172       32.9968593350
  H         8.8013345173       14.0900867019       20.0293026490
  H         8.1528803129       12.3779646996       19.9382357298
  C         7.7039159540       13.5945389779       18.2436750959
  H         3.1805640656        6.2517152599       16.1126263783
  C         3.4514932845        7.8322728384       14.7867127372
  H         3.9864580205        8.8624862966       29.2189704722
  H         3.1716702420        8.9363141387       30.7254509892
  C         4.6877189755       10.3108318760       30.6856681243
  H        -3.4438452259        8.5664768339       26.5603897205
  H        -3.7807375749        8.4762659568       28.2953659343
  C        -4.9899966051        9.7954328683       27.3306938065
  N        -1.0805572126       16.2607548416       30.9728119238
  C        -1.5280935999       15.8928242560       33.2334944254
  C        -1.6977231063       13.6934013109       34.2699811553
  H        -1.3038324578       11.9609316417       33.0207528569
  H         8.2861691844       12.7911705192       17.7445620874
  H         6.6558680573       13.5185869257       18.0121982532
  H         8.0420882364       14.5240289059       17.8236135076
  S         3.8359036111        9.4376507882       14.3513175462
  C         3.4776880688        6.8168153573       13.7278039452
  H         4.7204673839       11.3490980536       30.2718670929
  H         4.4861369354       10.2922298456       31.7491491722
  C         6.0148317674        9.6438210496       30.5049076153
  H        -5.0501606827       10.8054149961       27.6989647094
  H        -5.8063211875        9.2935482529       27.8592758766
  C        -5.4477394621       10.0173170865       25.8901198654
  S        -1.0647423091       17.7065944879       31.7329456223
  N        -1.4569323414       17.2432789059       33.2667897573
  C        -1.7389166570       15.1391376256       34.4287007757
  H        -1.8264954419       12.9969180092       35.1643012560
  C         4.1050674677        8.7220219510       12.7209038128
  N         3.9955880256        7.4130856027       12.5982459687
  O         3.0173695205        5.6749428515       13.8376878753
  H         6.9402330936       10.2887134842       30.6266609517
  H         6.0766732636        9.3210964095       29.4872135814
  C         5.9902843432        8.3896607988       31.5233659159
  H        -4.5825558390       10.5502549489       25.3851431220
  H        -5.5904457971        9.0580933321       25.3767694923
  C        -6.7226142572       10.8624018965       25.7795816975
  C        -2.0794738763       15.9361385261       35.5479385068
  S         4.5715428270        9.4667348314       11.2796234388
  C         3.9303315836        6.5848083513       11.3839106262
  H         6.7533926574        8.6756459533       32.2456908147
  H         5.0301360245        8.1913473913       32.0556219373
  C         6.4870220344        7.0871832698       30.8436293655
  H        -7.0152123716       10.7399924854       24.7831243570
  H        -6.4949592368       11.9345355286       25.8776829563
  C        -7.8203465170       10.2323749246       26.6247724402
  H        -1.5861213371       16.8915835959       35.6128015138
  C        -2.7059889707       15.5795155364       36.6695810877
  H         4.5751924381        6.9801411181       10.6268063045
  H         4.3446292711        5.6725469009       11.6689280346
  C         2.5295760310        6.4251742290       10.8718320811
  H         7.4873852628        6.9298901075       30.4674517007
  H         5.7981041724        6.7419814923       30.0931177927
  C         6.3991893540        6.0657247072       32.0272437484
  H        -7.8098092952        9.1487909368       26.5739394583
  H        -7.7367658771       10.5609442612       27.6097418772
  C        -9.1982250018       10.6022722248       26.1655602708
  S        -3.5664483358       14.1165522868       36.9393431416
  C        -2.6763594254       16.4975132324       37.8343030120
  H         2.2627847762        5.4365314438       11.2174163876
  H         1.7941560371        7.1983093347       11.2141609022
  H         2.4990494614        6.2094433658        9.8098546226
  H         6.5275563619        6.6677451187       32.9222379363
  H         7.1065802603        5.2308000763       31.9705744799
  H         5.3896583372        5.7153456254       32.1922358476
  H        -9.3163853431       10.6110490621       25.1040365031
  H        -9.5293436285       11.6243392079       26.5300578861
  H        -9.9961132828        9.8718425163       26.4723246958
  C        -3.9853025115       14.7869617560       38.5241330158
  N        -3.4267027813       15.9660414337       38.8197796557
  O        -2.1156431004       17.5713476255       37.8650544189
  S        -4.9021877824       13.9398478315       39.7824069061
  C        -3.4916300004       16.6593449045       40.0965721721
  H        -3.2599679320       17.7633070808       39.9828814571
  H        -4.4270781276       16.6214525940       40.6463846129
  C        -2.4556713908       15.9635088262       40.9878020279
  H        -2.9618418630       15.2640973351       41.5456478943
  H        -1.5121477588       15.6299792162       40.5416859594
  H        -2.1196367807       16.6050684361       41.7827760629
