352
i=
  H         4.7787417476        1.9196018620       12.8287060076
  C         3.8951830474        2.5358051172       12.9557389697
  H         4.4252807165        3.4489986429       13.1476827167
  C         3.0930676523        2.6275830887       11.6449897028
  C         3.1195900557        2.1612849001       14.1889564260
  C         3.9248713993        2.8038242790       10.3224667885
  H         2.2939947055        3.4138477479       11.6705979159
  H         2.6737943674        1.6510444162       11.4652357707
  H         2.8895176489        1.0738421112       14.2269981754
  H         2.3029301945        2.8116758254       14.1157586644
  H         3.7557033603        2.3538501100       15.0492557372
  C         4.7341888479        1.6323096099        9.6814507004
  H         3.1610964722        2.9066903059        9.5690264453
  H         4.5508748369        3.7221674364       10.4176702746
  C         5.4986972903        2.0504808801        8.3956416496
  H         4.1018920724        0.8184371594        9.4628906529
  H         5.4063595582        1.3258831937       10.5003224533
  C         6.7779041972        2.8081177260        8.7666128624
  H         5.0160743274        2.8655336079        7.8385350148
  H         5.5383246000        1.2165403133        7.6908532130
  C         7.8877559253        1.9241814448        9.2934992005
  H         7.0757922053        3.2701004382        7.8102025186
  H         6.4402741700        3.5254813099        9.5409016875
  C         9.2414258589        2.7299623654        9.4490835580
  H         8.0626469790        1.0676407916        8.6569777411
  H         7.5431009061        1.6162625517       10.2233047634
  C         8.9284433850        4.0297365674       10.1081067868
  C         9.7995076126        3.4167213735        8.1946147887
  C        10.2782341989        1.9407525045       10.2719681363
  C         9.1603623948        5.1260440602        9.3189212402
  C         8.3317154740        4.4784153234       11.3363009902
  C         9.6943613689        4.7443286769        8.0869966974
  C        10.2522460413        2.8434776689        7.0507945723
  H         9.8173163085        1.7715670415       11.3118010331
  H        10.4981348533        0.9582796845        9.8110998418
  C        11.6020492174        2.6682217920       10.3648306768
  S         8.6645634490        6.6168070572       10.0419020341
  C         8.1242996844        5.8199649791       11.5186592112
  H         8.1347215100        3.7139305770       12.0677644702
  C         9.9611815985        5.4594205724        6.9383560600
  H        10.2682671192        1.7915285798        7.1368863004
  C        10.4957643752        3.4400956394        5.8920469179
  H        11.4708934983        3.6658667959       10.7817347817
  H        12.0739506535        2.7400255494        9.4168474090
  C        12.6217303331        1.9126843475       11.3486955429
  C         7.5865090130        6.5151219147       12.7691330784
  C        10.4380132260        4.8001462326        5.7821738062
  H         9.6613981673        6.4948601632        6.9342180218
  C        10.9044499848        3.0253909966        4.6458560369
  H        13.5685607034        2.4236037580       11.4390462067
  H        12.9503641879        1.0248491894       10.8025441134
  C        12.0762895901        1.6616108732       12.8120342309
  C         7.6788982644        7.8662099286       13.0604035682
  C         7.1336360395        5.6045079235       13.8859209383
  C        10.6579361007        5.4556201038        4.4649671808
  C        10.9087833722        4.1164577202        3.8203251935
  S        11.2263868697        1.5713247447        3.9388822009
  H        11.3477922715        2.3853770524       13.0861990987
  H        11.6193473254        0.6779976635       12.9250093102
  C        13.2373557190        1.5485472184       13.7969945151
  N         8.0219803110        8.8188959403       12.1114152862
  C         7.3301123486        8.3873443562       14.3369933643
  C         6.7648742632        6.1444051489       15.1049177712
  H         7.0128201134        4.5746616286       13.6668499446
  C        11.8964523951        6.4269003699        4.5145383112
  C         9.4985242011        6.2321441210        3.9973366397
  C        11.2515780403        3.7666255062        2.5383832975
  C        11.4076406896        2.3984114337        2.4763292461
  H        13.6330793434        2.5624455492       13.8219601599
  H        13.9877756190        0.9049739797       13.4325601555
  C        12.8496430390        1.0486062742       15.1955973044
  S         8.0417185441       10.2973407853       12.8735848449
  N         7.4649444436        9.8118483942       14.3090768234
  C         6.9575732133        7.5969279124       15.4157558885
  H         6.4112288950        5.4683313770       15.8165048450
  H        11.7157851277        7.2199115266        5.2688843351
  H        11.8656901380        6.9094247006        3.4992126856
  C        13.1661894393        5.5556485452        4.7549044109
  H         9.1494018387        7.0567791093        4.6245926394
  H         9.7789538677        6.7601065632        3.1102555187
  C         8.2883667384        5.4277424461        3.5448126325
  H        11.3041003440        4.4659159824        1.6982685462
  C        11.6739588613        1.6900970111        1.1850104664
  H        12.0037328174        0.3028453092       15.0892457935
  H        13.6169757298        0.4284836820       15.7188780716
  C        12.3473124064        2.1589771723       16.1210452653
  C         6.6623079564        8.1732677267       16.6527045949
  H        12.9686637193        5.0195077447        5.6351929416
  H        13.4009901228        4.8370288313        3.8769350399
  C        14.4112580409        6.4478256593        4.9717217850
  H         7.9754376885        4.7243236900        4.3258676660
  H         8.6384797908        4.8804994867        2.6155771862
  C         7.0954485968        6.4639379877        3.2866032321
  C        11.5646047826        0.3027204032        0.9785278118
  C        11.6805863867        2.4577702557       -0.0860311211
  H        11.2629752790        2.2932612927       15.9980761364
  H        12.8436016449        3.0979568086       15.9142721744
  C        12.7514892295        1.9017335719       17.5917992009
  H         6.8359081607        9.2637505593       16.5811213706
  C         6.4331350000        7.6133552481       17.8619625009
  H        14.1785379393        7.1304518141        5.8002742242
  H        14.5596933105        7.0194330599        4.0859247263
  C        15.5740915176        5.5725464711        5.4447813380
  H         6.8491728788        6.9470847997        4.2614899305
  H         7.2722003455        7.1917205646        2.5741651724
  C         5.8310157270        5.7664899433        2.8282474305
  N        11.3605331851       -0.5982104248        1.9842681176
  C        11.7832747748       -0.3232185049       -0.2573172984
  C        11.9015677512        1.8663481222       -1.3104782796
  H        11.6862502149        3.5214154152       -0.1488468987
  H        12.7331096855        0.8179749345       17.9044595487
  H        12.2566927823        2.5202680841       18.2678223483
  H        13.7987146938        2.1267385865       17.6213348951
  S         6.2790424347        6.0527831318       18.3619151710
  C         6.3815099574        8.6181202728       18.9438601916
  H        15.5386099996        4.5687340920        5.0269358044
  H        16.3617181507        6.0913945618        4.8314509529
  C        15.7737569806        5.3213360085        6.9133529218
  H         5.4577477844        5.3384164671        3.7437580094
  H         6.0306050712        4.9836030354        2.0950601987
  C         4.7572870840        6.6334306322        2.1829510821
  S        11.5097980957       -2.0738238931        1.3197543003
  N        11.9445217119       -1.6840448330       -0.2014256561
  C        12.0801873535        0.4011919623       -1.4416141585
  H        11.9154236469        2.4856580794       -2.1833611454
  C         6.1928261765        6.6603894360       20.0025874909
  N         6.1726637547        7.9882463501       20.0794186671
  O         6.4627079858        9.8204130203       18.7919380483
  H        15.6709112548        6.4114094170        7.2752662777
  H        14.9573932086        4.8059698776        7.4818711623
  C        17.0617003036        4.6739315514        7.2865887331
  H         4.4020764265        6.1323555854        1.2515673274
  H         3.9536745128        6.5550719113        2.8395476873
  C         5.0806855866        8.0893727458        2.1542631045
  C        12.2965100264       -0.3470176649       -2.6484302388
  S         5.9470563077        5.6804765858       21.4577593107
  C         6.0553263215        8.7270219251       21.3599940926
  H        16.8211073012        3.9891189123        8.0182944057
  H        17.3117124769        3.9396958597        6.4823356663
  C        18.2647945151        5.4982475638        7.7041762602
  H         5.8563946406        8.4139522146        1.5197845744
  H         5.3210802001        8.4232549536        3.1252157412
  C         3.8679783867        8.9572082496        1.6171220565
  H        11.9270620215       -1.3878274841       -2.6970287454
  C        12.8617175843        0.0681447433       -3.8042649956
  H         5.2242345927        8.3772836272       22.0003243612
  H         5.6811404174        9.7430209736       21.1907123426
  C         7.4676630729        8.6886453448       21.9543797640
  H        18.9066477442        5.0916135779        8.5110212417
  H        18.0203519017        6.4764134574        8.2489478173
  C        19.2157182429        5.8412573173        6.5360623383
  H         3.6568397027        8.7077317595        0.5944420723
  H         3.0412416377        8.7162660195        2.2776907427
  C         4.2143468471       10.3950360286        1.5525533295
  S        13.4083602305        1.6195161934       -4.3191709817
  C        13.1433079155       -1.0355888342       -4.7905904677
  H         7.7395128324        7.6728286237       22.1517490534
  H         7.4396113691        9.3879328818       22.8372828189
  H         8.1273854844        9.1250495408       21.2355314268
  H        19.5966609591        5.0190849060        5.9450159963
  H        18.8616475574        6.6049516015        5.9200557878
  H        20.1350007546        6.1606908138        7.0687691546
  H         5.1994191510       10.6565288282        1.8587876558
  H         4.0110413909       10.7849832245        0.5103282728
  H         3.5533092835       10.9908551631        2.2248833565
  C        13.9841385059        0.8828564092       -5.7857831385
  N        13.8489504635       -0.4439272653       -5.8060605843
  O        12.8000846750       -2.2369766376       -4.6983674033
  S        14.9376566212        1.6508773925       -7.0184731719
  C        14.0310878452       -1.2382924731       -7.0253769037
  H        14.2534529732       -2.2710233171       -6.7418627042
  H        14.8429873438       -0.8188247304       -7.6312894847
  C        12.7830335165       -1.1290290235       -7.8049344381
  H        12.7679703360       -0.1214995899       -8.1615917029
  H        11.8202756877       -1.4575262493       -7.2979591777
  H        12.8023560112       -1.7652003801       -8.6641785803
  H        -3.5635543152       14.9789085547       16.5566956696
  C        -3.1226238119       13.9809438587       16.5856627091
  H        -3.8168994846       13.3182415727       16.9885674682
  C        -1.7425924795       14.0409354780       17.3562238984
  C        -2.8929003024       13.5535214416       15.1715199868
  C        -1.9030279447       14.4837343696       18.8999371713
  H        -1.2149064983       13.1296640268       17.4045282239
  H        -1.1013473536       14.7113933895       16.8417108584
  H        -2.2499494370       12.6366470929       15.1519135021
  H        -3.7214162865       13.0791002173       14.6574999625
  H        -2.5790838507       14.3818593450       14.5598793472
  C        -1.4820370404       13.4216523213       19.8295205628
  H        -2.9728594510       14.7025051802       19.1587676648
  H        -1.3663259514       15.4677370105       18.9930268301
  C        -2.0723474951       13.8614390099       21.1603654902
  H        -2.0147313877       12.5553028665       19.3924112249
  H        -0.4667507889       13.2371444819       19.7266163797
  C        -1.2384823336       13.2200234405       22.2813417062
  H        -3.1554515725       13.6616514019       21.2418190922
  H        -1.8881534472       14.9631833129       21.2285065067
  C         0.1418001115       13.8499621176       22.4384443938
  H        -1.6806316263       13.2014715121       23.2629693880
  H        -1.2265845007       12.2171864849       21.9311069323
  C         1.1394383347       13.0829943473       23.3772551541
  H         0.6654384782       14.0046751282       21.4938478628
  H        -0.0715732349       14.9037661677       22.8109890821
  C         1.3018186913       11.7095454140       22.7427227538
  C         0.4959006390       12.4827352052       24.5627151271
  C         2.4710956811       13.8657559364       23.6547236830
  C         1.0232639462       10.6606818000       23.5448483718
  C         1.8186389501       11.3706649060       21.5014705359
  C         0.4867028747       11.1190313116       24.7314258438
  C         0.0433815690       13.1171688725       25.7203112721
  H         2.7268990528       14.3232282265       22.7671843787
  H         2.2949286349       14.6098908103       24.3861630774
  C         3.5710571466       12.9411346870       24.1183822600
  S         1.4653607068        9.1143177291       22.8360836269
  C         2.0737099425       10.0230419902       21.4207041988
  H         2.0199120833       12.1411093078       20.7933129852
  C         0.1141379786       10.5333803068       25.8914162413
  H         0.0709034707       14.1512387783       25.7259483680
  C        -0.2501553040       12.5128320579       26.8903442471
  H         3.5413538551       12.0688489803       23.4600372614
  H         3.2689949277       12.4949560558       25.0560450170
  C         4.9441488818       13.4924274220       24.2307168747
  C         2.7201827037        9.3852814747       20.2170910609
  C        -0.2875319785       11.1721995111       27.0367932644
  H         0.0715577464        9.4257779382       25.9733711695
  C        -0.6464977543       12.8661961009       28.1466999151
  H         5.4955731432       12.8346920042       24.9260343967
  H         4.9481823507       14.4367728953       24.8232041536
  C         5.7523389115       13.6870363983       22.9135176960
  C         2.6340943409        7.9194927948       20.0800183428
  C         3.0539131388       10.2443542714       19.0922750171
  C        -0.6035591589       10.4377659696       28.3001228028
  C        -0.8561169132       11.7667353266       28.9546662836
  S        -0.9157751681       14.3571273832       28.8976824569
  H         6.2902826375       14.6427852924       22.8430780004
  H         5.0214445009       13.9858267663       22.2016019051
  C         6.6063912133       12.5157115422       22.3817043689
  N         2.2747548489        6.9436504479       21.0385007297
  C         2.8931519476        7.3301679126       18.8136630843
  C         3.2740960191        9.5917660171       17.9090226539
  H         3.1600358675       11.3387953825       19.0918973831
  C         0.4949225572        9.4933170581       28.9099277004
  C        -1.9673592522        9.6384413023       28.2206007539
  C        -1.2743088396       12.1452259725       30.2146528876
  C        -1.3508383437       13.5319858399       30.3672875949
  H         7.6959261185       12.5975841637       22.6165773317
  H         6.2474633448       11.5279856033       22.6918529615
  C         6.4544537714       12.4498324139       20.8582235071
  S         2.2482972646        5.4667216876       20.3263124246
  N         2.6538175908        5.9748357812       18.8621428559
  C         3.2179328298        8.0784246397       17.7059754899
  H         3.6795562081       10.2054118982       17.1505472407
  H         0.7034037779        8.6688267488       28.1648385080
  H         0.2212662283        9.0985117118       29.8710993756
  C         1.8271783067       10.3200868396       29.1289536475
  H        -1.9413851675        8.7866306437       27.5406482545
  H        -2.2243460521        9.3471259827       29.2273035854
  C        -3.1653343278       10.4515963834       27.6366179081
  H        -1.4796252293       11.3112233159       30.9192874180
  C        -1.6371909940       14.2602010135       31.6530869537
  H         5.4437472390       12.1338437537       20.5818475786
  H         7.1492332493       11.8088684324       20.3927696450
  C         6.9302070654       13.7498111762       20.1974299457
  C         3.3242559594        7.4477356173       16.4561855986
  H         2.1391788672       10.7913379808       28.2199507203
  H         1.7579822147       11.0538463105       29.8885445906
  C         2.9239596565        9.2639811112       29.4332320518
  H        -3.1010734357       10.9526305567       26.6730567749
  H        -3.3850596567       11.2565004797       28.2548721369
  C        -4.4835606570        9.5887455105       27.5708706372
  C        -1.6636894065       15.6770816558       31.8506639211
  C        -1.7854391171       13.4595381774       32.9190838977
  H         6.3348802961       14.6982562578       20.3828095575
  H         7.9362621579       14.0178196164       20.5858972260
  C         6.9579612562       13.4317375034       18.7031805805
  H         3.0953715192        6.3539117720       16.4635145457
  C         3.7097824726        7.8849600579       15.2101686013
  H         3.1857235561        8.7986631318       28.4936652231
  H         2.5635402826        8.4365325267       30.1070668202
  C         4.0095009239        9.8991535672       30.2061609315
  H        -4.3633747155        8.7054969579       26.9080783645
  H        -4.5767667516        9.1589283130       28.5788328804
  C        -5.6812113751       10.3430600597       27.2640874151
  N        -1.4217046481       16.5470091419       30.8134761806
  C        -1.9327204869       16.3211154440       33.0486792149
  C        -2.1926772365       14.1234090969       34.1290436072
  H        -1.7618250250       12.4062118122       32.9473949773
  H         7.0302439086       14.3928975936       18.2432841785
  H         7.8485595522       12.8792623441       18.4889518706
  H         6.0585222447       13.0131474630       18.3282202909
  S         4.1483486315        9.5034428335       14.7661770843
  C         3.7051821787        6.9187502864       14.1231374668
  H         4.2025656949       10.8635068755       29.7126625328
  H         3.5620738076       10.1970944427       31.2394893918
  C         5.2611412068        9.1232981577       30.3842489216
  H        -5.2807240246       11.2165957463       26.8283009237
  H        -6.3292051277       10.5979548790       28.1252893014
  C        -6.6788639917        9.6979904765       26.3290113144
  S        -1.4307299846       18.0379576327       31.4481288589
  N        -1.8991531190       17.7321724131       32.9287553193
  C        -2.2597899870       15.5888018213       34.2305515715
  H        -2.3634209279       13.5963596515       35.0544398539
  C         4.2903359701        8.8956962645       13.1033756434
  N         4.0480476459        7.5942883911       13.0045164345
  O         3.4549776204        5.7331451147       14.2231929308
  H         6.0216277187        9.9031839590       30.4504703691
  H         5.3961821217        8.6784678163       29.3747575190
  C         5.2869373872        8.0180580555       31.4042305751
  H        -6.0787805557        9.1115142512       25.7167665791
  H        -7.2968394127        9.0822991790       26.8099742116
  C        -7.4028422495       10.8051204117       25.5196167654
  C        -2.6991479142       16.3093743443       35.3343898609
  S         4.5829580912        9.8374966216       11.6034617464
  C         4.1157488671        6.8186888532       11.8215591404
  H         5.5862117021        8.3651290755       32.3880424578
  H         4.3279187061        7.5059774202       31.5143528546
  C         6.2101790751        6.9119731895       30.8754461121
  H        -6.8202010812       11.2229144311       24.6925063411
  H        -7.8429292112       11.5755933397       26.1875976036
  C        -8.6689678111       10.1751042945       24.8522052422
  H        -2.5038642428       17.3733938745       35.2673283277
  C        -3.1298873636       15.9960594789       36.5593996411
  H         4.7495414139        7.1773707127       11.1174106794
  H         4.4780028304        5.8196981903       12.0631476237
  C         2.7304401475        6.7147823634       11.0873222345
  H         7.1053926140        7.5332194234       30.7798025338
  H         5.8752440908        6.4377941940       29.9367944611
  C         6.4507993985        5.8321430547       31.9214035566
  H        -8.9337462261       10.7381447147       23.9780055355
  H        -8.4170691346        9.2031664033       24.4220443503
  C        -9.9420871182       10.1639452733       25.6554801589
  S        -3.3763780798       14.4458427129       37.2072092944
  C        -3.3944031083       17.0831179645       37.6376069258
  H         2.6867974552        6.1411571502       10.2158428033
  H         1.9810315161        6.3892042753       11.8253979537
  H         2.4054750321        7.7755337242       10.8769368513
  H         7.1424694536        5.1101872993       31.4957430100
  H         5.5417393144        5.2333735021       32.0056188042
  H         6.7104129673        6.2782799088       32.9188009741
  H        -9.6523984671       10.0246752561       26.7106538954
  H       -10.6503913477        9.4017852815       25.3937104157
  H       -10.3932636165       11.1330554129       25.5128911885
  C        -3.6330917283       15.1185198488       38.7949875689
  N        -3.6480270015       16.5062083032       38.8568387509
  O        -3.1093749073       18.2713753775       37.4399171607
  S        -3.8695585262       14.2153634031       40.2900863741
  C        -3.8119612341       17.3198052513       40.0497343434
  H        -4.0615201710       18.3224324833       39.7676381617
  H        -4.6825640720       16.9775893658       40.6218099674
  C        -2.6273375357       17.4226396853       41.0264907760
  H        -3.0087130856       17.1194071277       41.9801523573
  H        -1.8247569273       16.7335354136       40.8906009211
  H        -2.2144080847       18.4409009883       41.0761920921
