352
i=
  H         2.2147199183        3.7663138883       12.5823493004
  C         2.7948685847        2.8463117120       12.8649047382
  H         2.1836437217        1.9904523779       12.6173881215
  C         4.1600523417        2.7785480705       12.0247808712
  C         3.0094100339        2.8546870499       14.3448518329
  C         3.8800816396        2.7752703138       10.4809129346
  H         4.4950025051        1.8055664814       12.3496088447
  H         4.8817829296        3.6175552925       12.4533455719
  H         1.9967184663        2.7831110293       14.7299692705
  H         3.4762685918        3.7640534854       14.7208252552
  H         3.6501018443        2.0597669734       14.7773213412
  C         4.5655323694        1.6159662512        9.7211269206
  H         2.8080712217        2.5954597391       10.3779618790
  H         4.1174722517        3.7953445379       10.0956070754
  C         5.1431554780        2.0682492982        8.4083148503
  H         3.7265752101        0.8852707574        9.4825265411
  H         5.3028661191        1.2511733338       10.3824619009
  C         6.3898490850        2.9873995869        8.4791116285
  H         4.3693239008        2.6243003405        7.9186178760
  H         5.3145028449        1.1832346432        7.7530238505
  C         7.6953748307        2.3061854422        8.8982859047
  H         6.4907852628        3.5030505782        7.5391686661
  H         6.2025118487        3.6999183332        9.1824855294
  C         8.9993207369        3.1194169327        9.1117604119
  H         7.9182188803        1.5031166598        8.1968297628
  H         7.5364735823        1.8104722543        9.8638402821
  C         8.6739142136        4.5073604971        9.7813966816
  C         9.4690591119        3.8404920528        7.8905112656
  C        10.0887415125        2.2922062836        9.8939258225
  C         9.0169574388        5.6217101755        9.0499133102
  C         8.2669024712        5.0012387985       11.0466841799
  C         9.5387295748        5.1990816960        7.8760609728
  C         9.9116628274        3.2442479600        6.7209229959
  H         9.6653598552        1.9121906022       10.7580822823
  H        10.3619510005        1.4369818100        9.2205745482
  C        11.4176316287        3.1076616291       10.2448961052
  S         8.5703015940        7.1574107204        9.6790923321
  C         8.2444013540        6.3711728918       11.1436793367
  H         8.1291298384        4.2411428433       11.7876653447
  C        10.0188940325        5.8317631748        6.7368979296
  H         9.8289709674        2.1555046528        6.6391686153
  C        10.2784853445        3.8658497955        5.5805006826
  H        11.1137992831        4.0694961502       10.5644517560
  H        11.9927881819        3.3047359765        9.3380054192
  C        12.2595110582        2.5063320454       11.4519713502
  C         7.8699039034        7.1613966926       12.3737877994
  C        10.3336591651        5.1917677594        5.4903167183
  H        10.0434769722        6.8864177285        6.8363386684
  C        10.7157119813        3.4167642769        4.3658283194
  H        13.1366367109        3.0124150436       11.6374578137
  H        12.6678647894        1.5111479934       11.1356187447
  C        11.3820678945        2.3802934173       12.7544999824
  C         7.7829155919        8.5298173898       12.6145423777
  C         7.3836837818        6.3125196811       13.5143656919
  C        10.8057501226        5.8329824304        4.1955136872
  C        10.9848739037        4.4822745057        3.5202765592
  S        10.9082575807        1.9201267321        3.6528338362
  H        10.8438953537        3.3358710021       12.8166849498
  H        10.6902284346        1.5445865173       12.6901604608
  C        12.3632948486        2.3344535053       13.9324759186
  N         8.2565490388        9.5009543217       11.7011072074
  C         7.5441504610        9.0895977133       13.8706555095
  C         7.0259721828        6.8740894868       14.7426432345
  H         7.1237224445        5.2554545323       13.3512878092
  C        12.1407180438        6.6328012925        4.4093768407
  C         9.7477500747        6.5612881333        3.3483640762
  C        11.4360673048        4.0267580903        2.2061578776
  C        11.5006042435        2.6442034182        2.2312461258
  H        13.0212412108        3.1340155036       14.1983420815
  H        13.0838312803        1.4818854442       13.8219108992
  C        11.4413506647        2.0670442778       15.1027314426
  S         8.1902004341       10.9311363221       12.4504284168
  N         7.7368507921       10.4594446501       13.9226196220
  C         7.1329052885        8.3283209854       14.9728907176
  H         6.7228225325        6.2486985194       15.5424504547
  H        11.9045647489        7.4146378365        5.1193105177
  H        12.4894093099        7.0229936895        3.4422050426
  C        13.2492410033        5.7335287441        4.9404920722
  H         9.3854836992        7.3792169880        3.9463261760
  H        10.3210849991        6.9714522799        2.5680106837
  C         8.6599616255        5.7315336610        2.6289412904
  H        11.6541295308        4.7027216048        1.4443642596
  C        11.9780878928        1.7991743135        1.0808308127
  H        10.8318416796        3.0206545390       15.1786337739
  H        10.7323036237        1.2411549968       15.0006065788
  C        12.1132995631        1.9487953041       16.4736522087
  C         6.8800382094        8.9902898421       16.1989435854
  H        12.8730507422        5.1499597355        5.7589916957
  H        13.5702015898        5.0371710432        4.1060450368
  C        14.5549846051        6.4006279182        5.3823248427
  H         8.0837053485        5.1170111433        3.3381993604
  H         9.0904771112        5.1201078545        1.8207481532
  C         7.6447153881        6.5714443643        2.0268301641
  C        11.9731188183        0.3685290028        0.8776423898
  C        12.2903570791        2.4920568876       -0.1940825357
  H        12.8921316164        1.1641091255       16.4525820649
  H        11.3352397668        1.6379761075       17.2052197808
  C        12.7028403601        3.2266516468       17.0017883573
  H         7.0767689780       10.0220609190       16.1442744643
  C         6.4960482828        8.4407953065       17.4691096241
  H        14.3107793233        7.3777674795        5.8095446228
  H        15.1044450000        6.7421583376        4.4664367003
  C        15.4400556602        5.3853671242        6.1377823110
  H         7.3004152773        7.3033725466        2.7502722455
  H         8.0358599797        7.1930997237        1.2227571275
  C         6.4724702937        5.8672123825        1.4058563447
  N        11.7468740337       -0.4819210627        1.9717954817
  C        12.2801943621       -0.3524614370       -0.2809425827
  C        12.6248303132        1.7685332484       -1.3446399434
  H        12.0388454485        3.5554098049       -0.2723664103
  H        11.9785490398        3.9646233168       16.9679988057
  H        13.6163567234        3.5656487479       16.5363999921
  H        12.7789650209        3.1179003692       18.0781211626
  S         6.0137176494        6.7695521220       17.9507245130
  C         6.3928095202        9.4014799575       18.4778790631
  H        15.0857908010        5.3098077440        7.2093222016
  H        15.2491743126        4.3885581107        5.6163368400
  C        16.9474522577        5.7251615214        5.9406296004
  H         6.4015358909        4.7982961363        1.5775527997
  H         6.7149588792        6.0336173010        0.3144140945
  C         5.1345884169        6.5850293485        1.7675334813
  S        11.5409135216       -1.9997653945        1.3365858763
  N        12.0708221758       -1.7684194107       -0.2016589839
  C        12.6661516344        0.2889890351       -1.4488954825
  H        12.8851398159        2.2820033323       -2.2416220997
  C         5.8556689673        7.4598195690       19.6192464530
  N         5.9698813099        8.7843784129       19.6203279773
  O         6.4191734644       10.6661904608       18.3015693971
  H        17.2081795859        5.5017012703        4.8490875474
  H        17.0768275202        6.8275177537        6.0645941129
  C        17.8594645738        4.9778731300        6.8967736343
  H         4.2607154063        6.0322994850        1.4242799040
  H         5.1533108737        6.4849672683        2.8808040472
  C         4.9961880173        7.9261366542        1.2090585989
  C        12.9649977664       -0.5142566800       -2.6031119393
  S         5.5900574283        6.5160131622       21.1063727377
  C         5.9935461554        9.5326005985       20.9207360380
  H        17.2490229724        4.8445696969        7.7712920268
  H        18.1451672397        4.0228986819        6.4885361914
  C        19.0925540978        5.7622203629        7.4366720840
  H         4.7621209326        7.7424571684        0.1783130521
  H         5.9360148731        8.4766054851        1.2652380942
  C         3.8859865533        8.7315292541        1.9404501789
  H        12.6592197184       -1.5645362813       -2.5707512188
  C        13.4641438233       -0.1357191007       -3.8272940073
  H         5.2677844889        9.0512113249       21.5327449577
  H         5.6027602747       10.6003127614       20.8588922520
  C         7.3453465895        9.4466369856       21.5422050897
  H        19.4787374592        5.2777323833        8.2994790719
  H        18.8456486858        6.7175838015        7.7729008283
  C        20.2452162861        5.7416076412        6.3567243187
  H         2.9479029747        8.7214079426        1.3795784732
  H         3.7676433179        8.2890778544        2.9015531127
  C         4.2191352337       10.2359138865        1.9794763956
  S        13.8483607182        1.4814162356       -4.2983120783
  C        13.5730216543       -1.1851847421       -4.8213108953
  H         7.4413900496        8.5270793006       22.1311291657
  H         7.6175858611       10.3499743099       22.0998994045
  H         8.0934504868        9.3911171609       20.7313045569
  H        19.9042419002        6.3083386163        5.5321544831
  H        21.2851930396        6.1570132392        6.6817660777
  H        20.5605267765        4.7178350295        6.0007616113
  H         5.1124357058       10.5973697268        2.5320104115
  H         4.0984331293       10.7626506130        1.0335977303
  H         3.4123746084       10.6191508878        2.5883961117
  C        14.0816106313        0.7268871348       -5.9406125796
  N        13.9887423107       -0.6079207413       -5.9774271310
  O        13.0896868316       -2.3170910349       -4.8053189425
  S        14.5518244356        1.7268847391       -7.3589910601
  C        13.9643809298       -1.3909701169       -7.2235651861
  H        14.4600468906       -2.2894399971       -7.0503414368
  H        14.6506226510       -1.0055898183       -8.0064229986
  C        12.6025523693       -1.5710175961       -7.7710492475
  H        11.8926381737       -0.7784112700       -7.4575542651
  H        12.1196375904       -2.5461766188       -7.4112247514
  H        12.6481041790       -1.3983810972       -8.9120253577
  H        -3.3040579940       15.0794753168       16.8193882552
  C        -3.1517188820       14.0555393730       16.6970108065
  H        -3.8958288562       13.6541955660       17.3533885857
  C        -1.7815683386       13.7825121629       17.3124174642
  C        -3.2046438735       13.4612701378       15.2400023864
  C        -1.8393214837       13.1931361420       18.6796538242
  H        -1.2062351587       13.2259302394       16.6174143216
  H        -1.2103064374       14.7137099265       17.2994411064
  H        -2.6797524171       14.1319424677       14.5031621503
  H        -2.8627719178       12.4036784674       15.0899252426
  H        -4.2475903168       13.5256177732       14.9103963977
  C        -2.5324462002       14.0843094795       19.6850876739
  H        -0.8446835029       13.0200815547       18.9570420530
  H        -2.2817762294       12.1928182016       18.5196207697
  C        -2.7933246551       13.2853262894       21.0559935535
  H        -1.8485723079       14.9518799610       19.8230498721
  H        -3.5116425653       14.5339877201       19.3953156348
  C        -1.6187213506       12.7322552300       21.8137409248
  H        -3.5285020632       12.5208492155       20.8947702830
  H        -3.3372167876       13.9884460491       21.7073413497
  C        -0.5736639985       13.7563276582       22.2322541093
  H        -1.9063076919       12.0778268971       22.6772795119
  H        -1.2445306228       12.0055231316       21.1878633431
  C         0.6534513648       13.1864986479       23.0087130883
  H        -0.1381743334       14.2561392616       21.4084167260
  H        -1.0437195290       14.5500700260       22.8252726771
  C         1.0806918704       11.8771883158       22.3144972317
  C         0.3675563646       12.4785413734       24.2620527957
  C         1.8216763300       14.1398006149       23.0896838317
  C         1.0468055873       10.7798352294       23.1260380751
  C         1.7794189566       11.6495816370       21.1462818801
  C         0.6321933687       11.1586505570       24.3696886953
  C        -0.1452369806       13.0657196719       25.4183277077
  H         2.0360822629       14.6660869814       22.1623513165
  H         1.4975474063       14.9688638134       23.7380398121
  C         3.1075085091       13.4813325781       23.6723973672
  S         1.4456537531        9.3509962103       22.2749379471
  C         2.0365822139       10.3147376076       20.9534860025
  H         1.9143776919       12.4886951608       20.4628974383
  C         0.2658626422       10.4647276627       25.4830551827
  H        -0.0527352062       14.1230848790       25.5068170167
  C        -0.3809606163       12.4023382172       26.5840101250
  H         3.2806538574       12.4382464870       23.4089842439
  H         2.8525843616       13.3407349024       24.7193562368
  C         4.4338341992       14.3882270726       23.6422598054
  C         2.5839133160        9.6124969176       19.7120559794
  C        -0.2078857290       11.0521867090       26.6442695837
  H         0.2463394258        9.3456971564       25.4661326832
  C        -0.7434480471       12.7407496986       27.8434614244
  H         5.1461014264       13.7593395654       24.0818512344
  H         4.2611345303       15.2290878901       24.2674092609
  C         4.9213592709       14.7608521722       22.2334799158
  C         2.6414624043        8.2381257437       19.4192771848
  C         2.8870560917       10.5186359968       18.5462738008
  C        -0.5658723444       10.3083078863       27.8493643549
  C        -0.8479598439       11.6285990614       28.6772354075
  S        -1.1855550702       14.2358172698       28.5638698932
  H         5.8463322953       15.3128206704       22.3066673975
  H         4.1711741144       15.3394527220       21.6610846738
  C         5.2610159364       13.4501680848       21.5032371189
  N         2.2882856409        7.2521338183       20.2907589082
  C         2.8894862470        7.7288512422       18.1072790470
  C         3.1642844520       10.0085522973       17.2680006961
  H         3.0658370709       11.6055248335       18.7364256011
  C         0.6773727795        9.5014157291       28.4371985191
  C        -1.8205690031        9.3548790947       27.6460531339
  C        -1.2561120093       12.0229474424       29.9174726687
  C        -1.3443780566       13.3683968308       30.0892319329
  H         6.1787457506       13.0353586926       21.9185626948
  H         4.5245429431       12.6439460937       21.4456140258
  C         5.3830679252       13.6685608812       20.0181646557
  S         2.2321217764        5.8192108077       19.5383308346
  N         2.6794869179        6.3396810327       18.0765210325
  C         3.1167440031        8.5196573574       17.0072389611
  H         3.3369552666       10.6695075049       16.4045349084
  H         0.9853303034        8.7076562066       27.8376771688
  H         0.2509808902        8.8300155440       29.2044260050
  C         1.8215037333       10.3957821818       28.9854993826
  H        -1.6062923998        8.6792787577       26.8482166812
  H        -1.9708468118        8.6903790668       28.5150704159
  C        -3.1284965609       10.1341206354       27.2753838745
  H        -1.3967490515       11.3084593813       30.6740908668
  C        -1.5956037468       14.1298222875       31.3776557005
  H         4.9797017471       14.6283041798       19.6977711817
  H         4.8903737893       12.8114928792       19.5278749924
  C         6.8333696631       13.7870648577       19.5173877167
  C         3.4021413667        7.8828960226       15.7395176244
  H         2.1897382752       11.0443553216       28.1884024266
  H         1.4526721806       10.9917742500       29.8246683161
  C         2.9125016279        9.5828363956       29.5730832045
  H        -2.8705333421       10.7326470614       26.3923884779
  H        -3.5579202173       10.7935167996       28.0420817682
  C        -4.3180412033        9.2117490357       27.0893431258
  C        -1.7318173200       15.5704191923       31.4588891152
  C        -1.7451467286       13.4044753549       32.6836217011
  H         7.2742049595       14.5900322714       20.0675855008
  H         7.3035223197       12.8088902997       19.8215917917
  C         7.0440722722       14.0346743407       18.0491140206
  H         3.2576790172        6.8471613999       15.6435392393
  C         3.8353736146        8.2920746432       14.4514549050
  H         3.4776901662        9.1197454619       28.7105042422
  H         2.4689653186        8.7032263340       30.0975721504
  C         3.8927983644       10.3316662424       30.4244111872
  H        -4.2086898581        8.7084973103       26.1661667687
  H        -4.4179014657        8.5516841914       27.9886942047
  C        -5.5957258971        9.9440195363       26.8272389237
  N        -1.5776208701       16.4016542532       30.3992309966
  C        -2.0313204928       16.2710879445       32.5671906348
  C        -2.0672366599       14.1345067078       33.8301792920
  H        -1.9277212991       12.3650740547       32.6674283225
  H         8.0449712783       14.4913358525       17.8739979858
  H         7.0818899689       13.0925208642       17.5027689369
  H         6.3794761370       14.7871615822       17.6232081210
  S         4.0454979719       10.0137731001       13.9544886801
  C         3.9701724366        7.2494549864       13.3574711799
  H         4.0192992331       11.2623279640       29.9981390474
  H         3.4247089995       10.4125952910       31.4218725406
  C         5.2948346319        9.8024725298       30.3230245550
  H        -5.6275232247       10.7038851539       27.6059387319
  H        -6.3598628603        9.2465290887       27.1192046895
  C        -5.7315842270       10.5037968485       25.4158019938
  S        -1.7495119547       17.9805059612       30.8641182206
  N        -2.1677363287       17.6754970065       32.4420202387
  C        -2.2557023567       15.6533421719       33.8616249539
  H        -2.2222016966       13.5761431310       34.7554574191
  C         4.2270342037        9.2126082528       12.3234186011
  N         4.2143144616        7.8678117628       12.2402079669
  O         4.0986627532        6.0258915538       13.5608923278
  H         5.9941779898       10.4385583777       30.9344167282
  H         5.6741052104        9.7987280140       29.3064807607
  C         5.3403461799        8.3678774760       31.0114247982
  H        -4.9719039300       11.1276568544       25.1623975419
  H        -5.7034586760        9.6104142880       24.7875128138
  C        -7.0207967397       11.2939227277       25.2097113374
  C        -2.5675292678       16.3856050134       34.9653846771
  S         4.8278892191       10.2216058972       11.0399934339
  C         4.2323229092        7.0965692446       10.9742705766
  H         5.4900661650        8.3466977421       32.0439833923
  H         4.3628963186        7.8470887158       30.9695830983
  C         6.4000524390        7.4713974890       30.2906938425
  H        -7.0226643213       11.6415681378       24.1893828581
  H        -7.0036348524       12.1036009919       25.9028222989
  C        -8.2158420642       10.3218223155       25.3046691830
  H        -2.6216800716       17.4548792942       34.8277027669
  C        -2.8852170958       16.0767011277       36.2854284271
  H         4.8376551730        7.5689278783       10.2231591046
  H         4.5932499549        6.0937726925       10.9567664299
  C         2.7614681120        6.8888858492       10.5356735015
  H         7.2975673665        8.0524966188       30.0098000387
  H         5.9070226738        7.1750684053       29.3492904877
  C         6.6575746828        6.2939709646       31.1817806221
  H        -8.8596638949       10.5920865899       24.5085132436
  H        -7.9949668396        9.2546037116       25.1485312505
  C        -9.1681526323       10.6902770184       26.4750976148
  S        -3.1419225368       14.5740692338       37.0142749361
  C        -2.9851850126       17.1858212119       37.1977735102
  H         2.4251262845        7.4988774403        9.7544581450
  H         2.8324699188        5.8919577298       10.1847508239
  H         2.0680053050        6.9993596755       11.3569507624
  H         7.6542188366        6.4321265147       31.6685715187
  H         6.7844165991        5.3919388470       30.5357290140
  H         5.8876967513        6.1937592678       31.9828030065
  H        -9.4596084097       11.7568702111       26.5092635117
  H        -8.6958637208       10.3055822933       27.4211948180
  H       -10.0870171736       10.1995953891       26.3238477232
  C        -3.3285744631       15.3590707111       38.5805500014
  N        -3.4792481581       16.7317417384       38.4135160011
  O        -2.9037858942       18.3731864240       36.9223600136
  S        -4.2542110837       14.5802836375       39.8433374810
  C        -3.9261184960       17.5762471452       39.4746587542
  H        -4.4417519684       18.3244393161       38.8733733686
  H        -4.6853694065       17.1657413394       40.0580976553
  C        -2.7403881516       18.0859954660       40.3159532917
  H        -2.4226289564       17.2870981496       40.9665398943
  H        -1.9268810203       18.2329655125       39.5277727617
  H        -2.8588605752       19.0052729416       40.8819964685
