352
i=
  H         2.7093630861        3.4734052262       12.1446120926
  C         2.8336956830        2.4115141727       12.1744798603
  H         2.0109901645        1.9517363500       11.6543752939
  C         4.1135178921        2.0452700621       11.3796643323
  C         2.8057267243        1.9147516809       13.5754429419
  C         4.2449417083        2.5491858634        9.9453797682
  H         4.1317862453        0.9671023443       11.3551846617
  H         4.9992386739        2.2675651343       11.9075334171
  H         3.7922117943        1.6363713063       13.9744393053
  H         2.1547830569        1.0584893395       13.6180856535
  H         2.2335334599        2.6306335670       14.1589980726
  C         5.0008011866        1.4798090520        9.0590248044
  H         3.2788562496        2.7103966328        9.4493338513
  H         4.8010392396        3.4818694289        9.8506560305
  C         5.7768961920        2.0468199549        7.8892604035
  H         4.2011413160        0.8249892839        8.6703392546
  H         5.6702997873        0.8142240396        9.6069463727
  C         7.1073882576        2.8636757067        8.2249387316
  H         5.1417658204        2.6170465383        7.2336347295
  H         6.0668175662        1.1877087648        7.3860165764
  C         8.2947754498        2.0661440688        8.6945971994
  H         7.2894054685        3.5547698804        7.3541845971
  H         6.8937982399        3.5282096565        9.0313622174
  C         9.4683657527        2.9286962483        8.9098306432
  H         8.5749498471        1.2757584458        7.9840659240
  H         7.9802167372        1.4970983286        9.5484558685
  C         9.0408138444        4.2803813113        9.6554015082
  C         9.9420577310        3.7270190907        7.7009647943
  C        10.6704978753        2.1752698181        9.5257728964
  C         9.2459333305        5.4060955954        8.9190795063
  C         8.4243790543        4.5647098726       10.8841647049
  C         9.8601570197        5.0601531146        7.7278049185
  C        10.3926901812        3.1784105938        6.5454884978
  H        10.5090885898        1.6378579155       10.4360904666
  H        11.1018450428        1.4758500130        8.8246266115
  C        11.8141725928        3.1509546207        9.9285364431
  S         8.7680231186        6.8812862925        9.7481290586
  C         8.2902592077        5.9374882340       11.1475104071
  H         8.1886040550        3.7377178428       11.5653115228
  C        10.2827912280        5.7547772133        6.6118727483
  H        10.2847377916        2.0842973403        6.5123058293
  C        10.7503130600        3.8051045581        5.3948006202
  H        11.5124801045        4.1146339633       10.3340348279
  H        12.4093128082        3.3221324800        9.0564011786
  C        12.7716809116        2.5460276114       10.9796348043
  C         7.8121653490        6.5595912052       12.4202478483
  C        10.7153000263        5.1434230113        5.4140750955
  H        10.3184446608        6.8192120893        6.6036319062
  C        11.1673042526        3.4610469413        4.1330327577
  H        13.5787771036        3.2588967155       11.1878893609
  H        13.3346340290        1.6089554380       10.7139735041
  C        12.1642000699        2.3984756058       12.3875679681
  C         7.8008491366        7.9543138354       12.7624427048
  C         7.6984428526        5.6330022787       13.5916109764
  C        11.0646311030        5.8762538900        4.1091914708
  C        11.2475355054        4.5651226983        3.3299182198
  S        11.3107281390        1.9551616786        3.3133675726
  H        11.3130638491        3.0310566781       12.5019928660
  H        11.8647924087        1.3606080815       12.5930215164
  C        13.2756818289        2.5668023959       13.4759596544
  N         8.1581603446        8.9951241370       11.8745120870
  C         7.5203435215        8.4014631369       14.0833334248
  C         7.2829648790        6.1106762365       14.8674793449
  H         7.9453476604        4.5959921463       13.5162583591
  C        12.3701629597        6.7202794146        4.1711715340
  C         9.9725065036        6.7928892127        3.4550959731
  C        11.5830214552        4.2051663929        1.9915753692
  C        11.6389451533        2.7950963743        1.8516377670
  H        14.0412166627        3.3917974888       13.3271671116
  H        13.9615861275        1.6795840399       13.4237454712
  C        12.7087811015        2.5281960091       14.8516690572
  S         7.9637693057       10.4344154579       12.6100011859
  N         7.6764452355        9.8208255358       14.1347708718
  C         7.1790117001        7.5673182157       15.1395583546
  H         7.0326077254        5.3476897724       15.6288536583
  H        12.2627621166        7.5094927614        4.9055320424
  H        12.6142256883        7.2219609191        3.2325313916
  C        13.6799888226        5.9713832543        4.5085231021
  H         9.7793225977        7.5782884587        4.1218586058
  H        10.1981723757        7.1730008716        2.4810350573
  C         8.5946286295        6.1361290221        3.3381561349
  H        11.6674898409        4.9927277338        1.2474522441
  C        11.9891891232        1.9733187279        0.6355166834
  H        12.2883743376        3.4960345127       14.9476891994
  H        11.7809918736        1.9684029245       14.9175791070
  C        13.6996238372        2.5571010049       16.0196764103
  C         7.0814275713        8.1978746750       16.4018047434
  H        13.5679270835        5.0973509114        5.2133671549
  H        14.0126935187        5.4758207820        3.6320597428
  C        14.7172412499        6.9126045589        5.1216620595
  H         8.3275974432        5.6446582427        4.2812984892
  H         8.6823854251        5.4052944417        2.5354588340
  C         7.4982827711        7.1124189389        2.9987696328
  C        12.0102190518        0.5712682768        0.4997046051
  C        12.2077800209        2.7512254499       -0.5816223034
  H        14.3758744381        3.3607852517       15.8952655174
  H        14.2979382939        1.6495621903       15.9301903894
  C        13.0634084486        2.7194462427       17.4119252570
  H         7.4046119044        9.2128676433       16.5520924612
  C         6.6787903924        7.7621418356       17.6312425024
  H        14.4148612593        7.2732374941        6.0934467349
  H        14.6904825210        7.8375624381        4.5584206076
  C        16.1086783552        6.2758424183        5.0698606676
  H         7.2046736456        7.7325062304        3.8285873670
  H         7.7813301710        7.7528318488        2.1456802977
  C         6.0938456150        6.5277896144        2.6622541872
  N        11.9629568295       -0.3631794424        1.6030413869
  C        12.3632160509       -0.0873898586       -0.6425412825
  C        12.5121785481        2.0747543192       -1.7723894351
  H        12.0843647364        3.8212941302       -0.6804125599
  H        12.7906106705        1.7044564841       17.7729496417
  H        12.1100518371        3.2306984019       17.2968558206
  H        13.8076715412        3.1878743687       18.1182635264
  S         6.0471998003        6.1914667200       17.9065059601
  C         6.7007523852        8.6961016765       18.7832184944
  H        16.4532609766        6.0670475896        4.0636774370
  H        16.8171290164        6.9822922672        5.3279277135
  C        16.2584877449        5.0360474016        6.0483666354
  H         5.6103799207        6.0664988034        3.5990609082
  H         6.2366804700        5.6844088057        1.9834378037
  C         5.0000310893        7.5614353647        2.1613905251
  S        12.0764756944       -1.8424170772        0.9984565317
  N        12.2290435320       -1.4900694663       -0.5145888332
  C        12.6129473202        0.5771667139       -1.8559954100
  H        12.6092033694        2.7311727241       -2.6107880791
  C         6.0082481070        6.6610487627       19.5681749872
  N         6.2573823318        7.9911473367       19.8631734204
  O         7.0188911972        9.8656009166       18.7482023207
  H        15.7934659296        5.2630214637        7.0276350034
  H        15.6228567733        4.2424034828        5.6798413797
  C        17.7824788258        4.8281111567        6.2053155254
  H         3.9828684059        7.1115419391        2.2610609409
  H         4.8553367131        8.3731062788        2.8551341941
  C         5.1039583861        8.1534405836        0.7309980504
  C        12.6917041286       -0.1705914371       -3.0439622668
  S         5.4505921576        5.5125183400       20.7824067386
  C         5.9857527689        8.6771019326       21.0848539960
  H        18.0322458061        3.7805087374        6.4966433280
  H        18.3076197043        5.1267403918        5.3207552758
  C        18.2827334792        5.6400770238        7.3253362112
  H         5.4219014560        7.3299230361        0.0875105594
  H         5.9752327557        8.8387509328        0.7137109172
  C         3.9090798224        9.0019198269        0.2226303216
  H        12.4895923051       -1.2121120779       -2.9267969518
  C        13.1642224389        0.1357741019       -4.3118356043
  H         5.2044085133        8.0865934963       21.6086745550
  H         5.3821450580        9.5399051245       20.8960596175
  C         7.3435507188        9.0719402590       21.8229594025
  H        18.2623809797        4.9924395767        8.2090603707
  H        17.7192686003        6.5231939590        7.5588644350
  C        19.7908114973        5.9083505689        7.1466239097
  H         4.0447349361        8.9859201146       -0.8800137883
  H         2.9729418064        8.4853317855        0.4114230489
  C         3.9880735180       10.3810824323        0.8205994965
  S        13.7821427209        1.6355256723       -4.8429375411
  C        13.2949403352       -0.9868843052       -5.2853211696
  H         7.3961387391        8.7339482730       22.8692488717
  H         7.5370073740       10.1697394656       21.8244640698
  H         8.1344562189        8.6189320345       21.3306570081
  H        19.7960754787        6.7041590412        6.3794846949
  H        20.2168632473        6.2846368886        8.0296107151
  H        20.4042729184        5.0820184850        6.7585958636
  H         4.9634746622       10.8855734335        0.5936635436
  H         3.3296757381       10.9504129022        0.3049744165
  H         3.7802402817       10.3791728859        1.8717823934
  C        13.8894446135        0.8051966498       -6.4274178454
  N        13.8416716169       -0.5571522560       -6.4505248900
  O        13.0672583710       -2.1541246619       -4.9938063968
  S        14.5178831051        1.4311031535       -7.9079665585
  C        13.9791271763       -1.4819395842       -7.6051137059
  H        13.9966341378       -2.4398726656       -7.1312344237
  H        14.9158097386       -1.3787381131       -8.2034620620
  C        12.7736573425       -1.4137039349       -8.6382003302
  H        11.8939900560       -1.8018311292       -8.0122836173
  H        12.7998113211       -2.0374341797       -9.5208044163
  H        12.5274165972       -0.3993173616       -9.0037413354
  H        -3.8796211536       14.1786326648       15.7144820017
  C        -3.2000655739       13.4165823133       16.0620735401
  H        -3.8034119178       12.5177670109       16.2699453767
  C        -2.6085514079       13.8872855793       17.3797722415
  C        -2.1645255403       13.1370487295       15.0817320716
  C        -3.0468391404       12.9550343975       18.5144647335
  H        -1.5720168058       14.0122396466       17.4621492913
  H        -2.9958354792       14.8791063676       17.6241334646
  H        -1.2800182394       13.5313374292       15.5713617860
  H        -1.9722863543       12.0823856109       14.8728913212
  H        -2.2793277120       13.7157527841       14.1497400944
  C        -1.8369387218       12.8254037160       19.5915169536
  H        -3.2088436074       12.0477907259       18.1876931125
  H        -3.9445759855       13.4195734200       19.0109558949
  C        -2.4945567056       12.6354163935       20.9937190407
  H        -1.2393262864       11.9786702009       19.4150652338
  H        -1.1544196108       13.7426617429       19.6138851536
  C        -1.5815589514       12.3421399680       22.2242327501
  H        -3.3353783214       11.8677569418       21.0849769130
  H        -3.0643547124       13.5258680415       21.3007523342
  C        -0.4458185038       13.2792830445       22.4391930628
  H        -2.2810062054       12.3016019984       23.0433054121
  H        -1.2595942731       11.3516846462       22.0740484895
  C         0.8537885279       12.7568408703       23.0221022930
  H        -0.2967317449       13.9725042546       21.5482394012
  H        -0.7529914101       14.0157262929       23.1903988284
  C         1.2349768700       11.4461765996       22.3116052162
  C         0.5925130121       12.0299208697       24.3406821735
  C         1.9910220292       13.8504952953       23.1369910584
  C         1.1456493997       10.3303702182       23.1559968719
  C         1.7432762665       11.1059398474       21.0442116063
  C         0.7488247433       10.7080156889       24.4151388826
  C         0.1365101747       12.6474495230       25.4582549257
  H         2.0394529739       14.2930939731       22.1087926171
  H         1.6373073723       14.7016482901       23.6177071164
  C         3.3001566244       13.2455745425       23.5919382903
  S         1.6293440429        8.8884822280       22.3724160977
  C         1.9510195097        9.7373328239       20.9344265691
  H         2.0326471222       11.8510829766       20.2720905745
  C         0.5755966357       10.1347911749       25.6347937698
  H         0.0951357499       13.7331443033       25.3399275983
  C        -0.2134059416       12.0241587106       26.6257782190
  H         3.5339271424       12.4709381605       22.8109681784
  H         3.1153845330       12.5996372654       24.4781090442
  C         4.5269696851       14.0981299611       23.6970092121
  C         2.6134613240        9.0736606707       19.7935600307
  C        -0.0135149526       10.7177080172       26.7787919549
  H         0.7476350705        9.0632675500       25.7423034451
  C        -0.6689604165       12.3516960972       27.8825298361
  H         5.3061181361       13.6177987184       24.3314990311
  H         4.4312358025       14.9717281781       24.3863701970
  C         5.1056687046       14.5445114930       22.3939078329
  C         2.5587948856        7.6880305683       19.4405867864
  C         3.1787826797        9.8906910258       18.6992021981
  C        -0.4830992496        9.9180864162       27.9716806826
  C        -0.8198402608       11.2627480720       28.6803026767
  S        -1.0465133459       13.9009090159       28.5946072522
  H         5.7405944014       15.4148606471       22.5921533810
  H         4.3761830521       14.9570187181       21.6749358017
  C         5.9808653616       13.4838051497       21.6597137987
  N         2.0272256961        6.7051009430       20.3035425672
  C         2.8806191262        7.1254742266       18.2243335337
  C         3.4865485227        9.4117303608       17.4238227394
  H         3.3814971938       10.9282744688       18.9587009472
  C         0.6022800208        9.2119015757       28.7757481145
  C        -1.7123662149        9.0615825844       27.6381281287
  C        -1.2561590343       11.6358532730       29.9667004905
  C        -1.2985296608       12.9861118947       30.0790620210
  H         7.0589563210       13.7201161184       21.7307597792
  H         5.9101805039       12.6207002134       22.2471778790
  C         5.7199757731       13.2730787343       20.1352307685
  S         2.1662554494        5.2339199699       19.5930196694
  N         2.6704574620        5.7269616903       18.1499630496
  C         3.2772052756        7.9430144464       17.1258078260
  H         3.8557748583       10.0775945867       16.6411555530
  H         1.0601783196        8.5100341594       28.0548436788
  H         0.1772662285        8.5529803257       29.5582495839
  C         1.6780784983       10.1535739410       29.3161278086
  H        -1.5487751012        8.2755308596       26.9747365402
  H        -1.9831489332        8.4569045842       28.5500661990
  C        -3.0094532713        9.8546095149       27.3263533655
  H        -1.3237134604       10.8737808091       30.6998061473
  C        -1.5362069176       13.7406994667       31.3781934164
  H         5.0640162864       14.1014168213       19.8673970565
  H         4.9374432262       12.5094105324       20.0052318541
  C         6.9634027827       13.3167272652       19.2190132500
  C         3.5954286214        7.2254677817       15.8998691584
  H         1.9570619767       10.8630277234       28.5553005852
  H         1.3323750451       10.7073676724       30.1999279209
  C         2.8827689656        9.3986503644       29.8363419498
  H        -2.9304461348       10.2747461223       26.2822615889
  H        -3.2865780940       10.6419895492       28.0227883282
  C        -4.1431305524        8.9014270412       27.0854580470
  C        -1.7400931878       15.1164636980       31.5003610341
  C        -1.6340960799       12.9911728273       32.7027345643
  H         7.5191669325       14.2960642596       19.2668692307
  H         7.6564405199       12.5428709750       19.5737706729
  C         6.6543651993       13.0883301669       17.7016198266
  H         3.3808096002        6.2527407565       16.0081366739
  C         3.9049761442        7.6101732826       14.6260280609
  H         3.3444320741        8.9584584971       28.9340798933
  H         2.4704565979        8.5888361374       30.4396758950
  C         3.9170009720       10.3077689866       30.5057069232
  H        -3.8507013672        8.2609343233       26.2518453986
  H        -4.0993781222        8.1690978387       27.8882860721
  C        -5.5000756023        9.4846434488       26.9762071288
  N        -1.5173943219       16.0517949239       30.4954721195
  C        -2.0473282539       15.7435838335       32.7105633820
  C        -1.9171352660       13.6172747595       33.8675568076
  H        -1.5530074973       11.9580013970       32.7942626514
  H         6.1059877800       13.9227302097       17.1878170636
  H         7.6423560300       13.1573175843       17.1832385696
  H         6.1369490996       12.1549219589       17.5008511972
  S         4.0886409760        9.2154815500       13.9467301208
  C         4.0323323887        6.5281369960       13.6700359495
  H         4.1652862691       11.2728903128       29.9481538808
  H         3.5799238242       10.5358634062       31.5379228642
  C         5.2577707468        9.5983333369       30.8119000380
  H        -5.5302315311       10.3240219921       27.7060050083
  H        -6.2628868415        8.6798022211       27.2934873566
  C        -5.7252610205        9.9651156665       25.5114982609
  S        -1.6670181642       17.5149183781       31.0973935383
  N        -2.0137220117       17.1551480863       32.6411430150
  C        -2.1943643321       15.0645228574       33.9435580643
  H        -1.9795547108       13.0927591379       34.7875443769
  C         4.4989570832        8.4596084546       12.4307331079
  N         4.4499653574        7.0357091147       12.4768951891
  O         3.9818664119        5.2903665122       13.9947584943
  H         5.7569043360       10.2443060365       31.4124427783
  H         5.8888399707        9.5598072848       29.9637589772
  C         5.1319565380        8.1728294409       31.3023132705
  H        -4.8929864013       10.5351969313       25.0668670078
  H        -6.0148295785        9.1053156861       24.9033235202
  C        -6.9833933319       10.8797448779       25.4905678229
  C        -2.3859791180       15.8199807063       35.1397274530
  S         5.0357362545        9.2709475029       10.9896156721
  C         4.5028795484        6.2352802667       11.2478541224
  H         4.3614954943        8.2519732153       32.0557360534
  H         4.7490765208        7.4815422966       30.5035497841
  C         6.3883956642        7.6473096863       32.0126706629
  H        -7.3276948097       10.9932167827       24.4229793337
  H        -6.7562600888       11.8986154910       25.9354282092
  C        -8.0954620692       10.2725226358       26.3311219151
  H        -2.1694964077       16.8203192139       35.0811289298
  C        -2.9076781237       15.4560992925       36.3639462459
  H         5.1886041796        6.6506280588       10.5489897284
  H         4.6667638948        5.1519156803       11.4137886993
  C         3.0838460297        6.2286698197       10.7980191409
  H         6.5319007518        8.0912951475       33.0042042799
  H         7.3022319888        8.0468448090       31.6097115158
  C         6.3580119469        6.1479567984       32.0802716527
  H        -8.0900392544        9.1956754667       26.2253593742
  H        -7.9111113127       10.5991606496       27.3697569588
  C        -9.4643503007       10.6856855069       25.8209442587
  S        -3.5311464468       13.9839652130       36.7948286884
  C        -2.9852201327       16.4375001027       37.4679603407
  H         2.8287879701        7.0531513451       10.0900442827
  H         2.8716384535        5.3715931547       10.2486769620
  H         2.4396928617        6.2351278620       11.6244376628
  H         7.2478183232        5.7502905006       32.5162410794
  H         6.2713957113        5.7265155865       31.0526475631
  H         5.6137967278        5.8238808713       32.8086436571
  H        -9.9437978882       11.4193871216       26.4768434043
  H       -10.3244739061       10.0405280005       25.7622182432
  H        -9.3873393000       11.0258090744       24.7680531895
  C        -4.0529917383       14.7462811436       38.3397819428
  N        -3.6870655317       15.9916750331       38.4827748157
  O        -2.6439921898       17.5809751982       37.3364360786
  S        -4.9522101068       13.9838413548       39.6403495422
  C        -3.8079000489       16.8902674993       39.6658097052
  H        -3.5136305992       17.9419223364       39.4472262314
  H        -4.8393126017       16.9547133287       40.0015620971
  C        -2.8361550658       16.5997346013       40.7589757564
  H        -2.1911624172       15.8007313052       40.5559727272
  H        -2.1053495097       17.4123520881       40.8499240487
  H        -3.2249741291       16.4950202995       41.6878534362
