352
i=
  H         4.6831831769        1.6404155080       12.6098186496
  C         4.1976023948        2.5700962534       12.6103387489
  H         5.0305934573        3.1899899124       12.6994261675
  C         3.4129270138        2.8128224561       11.3884912259
  C         3.4648967524        2.7779733651       13.8927017615
  C         4.2227778509        2.8174459316       10.1065069247
  H         2.8027024142        3.7066098055       11.4839025441
  H         2.6877343843        2.0463482603       11.2820594279
  H         3.9236198784        2.0356541458       14.6432027457
  H         2.4040071389        2.6217142807       13.7715283263
  H         3.5678400747        3.7812480093       14.3145503614
  C         4.9238864989        1.5389426089        9.7647119873
  H         3.4810268815        3.1395477581        9.3522530884
  H         4.9400187918        3.5863865588       10.2574750391
  C         5.4839398360        1.6454636203        8.3104828877
  H         4.1555181775        0.7101998923        9.7083349263
  H         5.8404500664        1.3550394911       10.2774175744
  C         6.7186500606        2.5601348204        8.2289502520
  H         4.6046811489        2.0054291842        7.6945420560
  H         5.6822673825        0.6382684536        7.9370541710
  C         7.9697637488        1.8181212279        8.6104280520
  H         6.7640643332        3.0038229148        7.1895128328
  H         6.5730337957        3.3965868607        8.8450305190
  C         9.1823985231        2.8309769341        8.8894165782
  H         8.1199293345        1.0690845110        7.8009199181
  H         7.8235758744        1.1482847146        9.5048856776
  C         8.8406195811        4.1654890615        9.6389766099
  C         9.6004615229        3.5059249996        7.6751422350
  C        10.2982785127        2.1562923108        9.6384298056
  C         9.0928851225        5.2520269506        8.8252337620
  C         8.1648877307        4.5529941463       10.7898367522
  C         9.5133833379        4.8880009774        7.5649124389
  C         9.9385300543        2.8339194266        6.5097186503
  H         9.8998229843        1.7361987871       10.5467632964
  H        10.6350890411        1.3466733812        9.0898837792
  C        11.4263500490        3.0848861770        9.8561842265
  S         8.8620794979        6.7407754695        9.5995843248
  C         8.1624622148        5.9503848089       10.9658848802
  H         7.7862564015        3.7538917608       11.4670896729
  C         9.9380748515        5.5042620835        6.3961431630
  H        10.0131726320        1.7930295646        6.6022497403
  C        10.3273624612        3.4350264280        5.3624321405
  H        11.0404745007        4.0293984318       10.2594626669
  H        12.0113271012        3.0998663301        8.9404045849
  C        12.3459684474        2.6777572648       10.9882191872
  C         7.7366420346        6.6269358689       12.2778945120
  C        10.2609341335        4.8022189027        5.2472544888
  H        10.0664553024        6.6353135817        6.4083183518
  C        10.7095539868        2.9791688970        4.0830341332
  H        13.1492404653        3.4214355155       11.0673615843
  H        12.9242354733        1.7652765366       10.6902811056
  C        11.7036456115        2.5034149281       12.4116005241
  C         7.8136845588        8.0332925722       12.5740746989
  C         7.3268578311        5.7801918455       13.4046416455
  C        10.7405979385        5.4380228314        4.0048519541
  C        11.0254741203        4.0979191548        3.3101210039
  S        10.8852852605        1.4291038808        3.2920862266
  H        11.0761837719        3.3550056868       12.7411232711
  H        11.2106145111        1.5987100475       12.4393250501
  C        12.8293312768        2.5278194100       13.4871333471
  N         8.0749434754        9.0518734939       11.6966970571
  C         7.4410642226        8.5676895967       13.7838886685
  C         6.8867946574        6.3086069943       14.5918003524
  H         7.3284939748        4.7043805911       13.2833146207
  C        12.1274853012        6.0959017497        4.1782195851
  C         9.6438972114        6.2706137014        3.2506863935
  C        11.4587851021        3.6268204770        2.0586983355
  C        11.2742795152        2.2721836527        1.8582793039
  H        13.3563497997        3.5279248446       13.4597205923
  H        13.5967612301        1.8758522625       13.2268622525
  C        12.3184077486        2.0629258038       14.8259762425
  S         8.2387834446       10.4252363340       12.5285692750
  N         7.8696961565        9.8523565311       13.9714659381
  C         6.9837561857        7.7962434795       14.8839076548
  H         6.5865677758        5.5614524965       15.3320118212
  H        11.9528975969        6.9091576914        4.9180181800
  H        12.4853645721        6.4332445443        3.2358001885
  C        13.2814267313        5.2395995063        4.7631591945
  H         9.4140783803        7.1751010247        3.8491114876
  H        10.2048476756        6.7379524104        2.4009528445
  C         8.2888143867        5.5545290159        2.9368901012
  H        11.7376339462        4.2950811295        1.3023848182
  C        11.4384164123        1.5502670802        0.5665373976
  H        11.5880694256        2.7652097501       15.1674720116
  H        11.9618152064        1.0244713363       14.7346579485
  C        13.3993909336        1.8616413245       15.9125284483
  C         6.7361790163        8.4340189703       16.1427163478
  H        12.8790522986        4.9055406644        5.6998255803
  H        13.5668914326        4.3842619358        4.0411581961
  C        14.5655670492        6.1111349385        5.1027201184
  H         7.9491175603        5.1817128696        3.9100173290
  H         8.4212651289        4.7083035330        2.2729631935
  C         7.3826228510        6.5541730000        2.2800854018
  C        11.4398493310        0.1559281308        0.4164307842
  C        11.5420475410        2.2854971688       -0.6965388863
  H        14.2369811171        2.5337060416       15.7231848735
  H        13.6848566447        0.8144702558       15.6942841365
  C        12.7799826171        2.1053329412       17.2357159852
  H         6.6546953138        9.5086343750       16.0766208556
  C         6.4082620944        7.9015795925       17.3676290725
  H        14.3736270239        6.8805135170        5.8583937569
  H        14.9707737756        6.5310025887        4.1769266639
  C        15.6110803841        5.1574219169        5.7468968392
  H         7.3918222502        7.5199446906        2.7994096348
  H         7.7035713503        6.7224344702        1.2055791370
  C         5.9010485341        6.0192013296        2.2927196249
  N        11.1467723912       -0.8869665833        1.3755690465
  C        11.8820677077       -0.4757148152       -0.7338083610
  C        11.8532456880        1.6450285128       -1.9066723548
  H        11.6395159421        3.3147560069       -0.5854172858
  H        13.0520011514        3.0447705120       17.7448898948
  H        13.2015363816        1.4334601790       17.9226139222
  H        11.7414944552        1.8978290676       17.2433302606
  S         6.0432342516        6.2941534948       17.7199941440
  C         6.3842944217        8.8458201547       18.5105284320
  H        15.1224463227        4.5379376273        6.5004364165
  H        15.8127797153        4.4512534129        4.9775908608
  C        16.7864419395        5.9662693362        6.3067960903
  H         5.5640823151        5.8570352465        3.2790634444
  H         5.8695236052        5.1348399423        1.7111138280
  C         4.8938124814        6.9427202041        1.4731501638
  S        11.0378232495       -2.3272469609        0.6838035963
  N        11.9250110982       -1.8387556551       -0.5964620180
  C        12.2266231158        0.2268361043       -1.9098290783
  H        11.9886675493        2.2187410946       -2.8428030085
  C         5.9345789492        6.8548762497       19.3906493144
  N         6.0597227528        8.1723775155       19.6245508012
  O         6.5100010043       10.0535821444       18.3862831112
  H        17.1388827361        6.6404107304        5.5270872450
  H        16.4629101238        6.5234446820        7.2300581517
  C        17.9521905642        5.0003705696        6.7108163884
  H         5.3550677454        7.1894989779        0.5464209819
  H         3.9822677521        6.3871642911        1.2705648759
  C         4.6308141123        8.2477989914        2.2831034621
  C        12.6002499698       -0.4961345978       -3.1117303630
  S         5.4425372480        5.8026578308       20.6853886237
  C         6.2009319479        8.8027973850       20.9420922440
  H        17.7671088238        4.5747499848        7.6682845288
  H        18.0182443239        4.0729524125        6.0557531653
  C        19.2164799799        5.7767157418        6.8464029307
  H         5.5116250734        8.9169436787        2.1424528692
  H         4.5320406065        7.8743930962        3.3457551259
  C         3.3481967025        8.9290769811        1.7141436404
  H        12.3850489116       -1.5729542703       -3.0798173390
  C        13.1500502458       -0.1469079251       -4.3469558411
  H         5.6096494025        8.3911190226       21.8107984202
  H         5.8412283796        9.8122753487       20.9467721946
  C         7.6553660367        8.8634739238       21.3860792474
  H        19.9444276965        5.1936053937        7.4673868023
  H        18.9948037900        6.6385436291        7.3657736774
  C        19.9290646818        5.9568446033        5.5598850956
  H         2.4965103586        8.2285122843        1.4664997041
  H         2.9060567640        9.5743586244        2.4862511683
  C         3.6481583872        9.7116323417        0.3548044880
  S        13.7192512007        1.3584747274       -4.8701555940
  C        13.2151870897       -1.2623805371       -5.3191843949
  H         8.4053844062        8.8634644394       20.6631722761
  H         7.8034160640        8.0802386507       22.2232244845
  H         7.8294631859        9.7891107034       21.9420780242
  H        21.0430260450        6.0308026715        5.4943349612
  H        19.6552597487        5.1311219046        4.9256859247
  H        19.5972138929        6.8996488698        5.0428526240
  H         2.7569685528        9.7976952577       -0.3369978182
  H         3.9695360754       10.7398268208        0.5693827197
  H         4.3584342535        9.1243542805       -0.2700843906
  C        13.9173566970        0.5624656157       -6.4221524776
  N        13.7031623711       -0.7565195777       -6.4625126983
  O        12.8876091589       -2.3960058390       -5.1434590304
  S        14.3282399759        1.3510148949       -7.9789694684
  C        13.7304914727       -1.4723319386       -7.6611648900
  H        13.8476522234       -2.5094887389       -7.3695796157
  H        14.5438223916       -1.2441951598       -8.3055191319
  C        12.3133337504       -1.2959259867       -8.3539327076
  H        11.6185995867       -1.8529830878       -7.6797940244
  H        12.1949416126       -1.6504870619       -9.4150594851
  H        11.9919714382       -0.2411186814       -8.2894789720
  H        -3.3479512995       13.0035421002       16.3279832279
  C        -2.5706606488       13.6228003205       16.8034669217
  H        -1.7715649618       13.0531215786       17.2551564906
  C        -3.1940244459       14.7284888251       17.7015559401
  C        -1.9002958107       14.3602754704       15.6711012449
  C        -3.6329355212       14.1908886782       19.0929637348
  H        -2.4702301383       15.4809575715       17.9335351392
  H        -4.0254699754       15.2394600422       17.2589591337
  H        -1.1615415177       15.0945010506       15.9840947950
  H        -1.2936892488       13.7774454443       15.0158635164
  H        -2.5721032485       14.9168523497       15.0387209564
  C        -2.5249805866       13.5304255058       19.8899521078
  H        -4.3433436939       13.4299120999       18.8889406298
  H        -4.2023442606       14.9548248623       19.6491313417
  C        -2.5647015514       13.7746389882       21.3663113331
  H        -2.5532428236       12.4995792830       19.6832276565
  H        -1.5757719416       13.8401111145       19.4207052742
  C        -1.5132044098       12.9021714610       22.1281398204
  H        -3.5151478153       13.4337398596       21.7284923751
  H        -2.5129059102       14.7607934354       21.7243778536
  C        -0.2266663847       13.6987817990       22.4677366838
  H        -1.9889191565       12.5512684196       23.0448074088
  H        -1.3666102987       11.9749337891       21.5238889020
  C         0.7846216664       12.9483845915       23.2959442164
  H         0.1960490652       13.8985264432       21.5032920477
  H        -0.4056068111       14.6964901405       23.0699191981
  C         1.1574261239       11.6882856994       22.5719065128
  C         0.3612495915       12.2466968658       24.5225952833
  C         1.9532492045       13.8136171225       23.6666890501
  C         0.9425447706       10.5504684546       23.2936434010
  C         1.8235660832       11.4590635824       21.3224839882
  C         0.4367046765       10.8829422230       24.5565255709
  C        -0.1026317442       12.8128988922       25.6680507665
  H         2.2068743359       14.2940836816       22.7588889514
  H         1.5600303293       14.5966573868       24.3499603930
  C         3.2383550225       13.0920061929       24.1002284521
  S         1.5042040856        9.1342439816       22.5365631295
  C         1.9520085475       10.0951235290       21.1332856455
  H         2.1069900175       12.2551776501       20.6819892933
  C         0.0678652643       10.2570288659       25.7176171549
  H        -0.2491178504       13.8211893542       25.7144863723
  C        -0.4632450280       12.2054540603       26.8079547636
  H         3.5314188078       12.4116274707       23.2871329625
  H         3.0995458170       12.4817993112       24.9422868098
  C         4.2459893824       14.0611927835       24.5665615091
  C         2.4041294751        9.4786500563       19.9074869895
  C        -0.3761015502       10.8735886598       26.9291897887
  H         0.3778575884        9.1698956199       25.7234089951
  C        -0.8565156324       12.6623345603       28.0108460402
  H         4.8591064186       13.6796655610       25.3527343112
  H         3.8551176919       14.9699510383       25.0215960779
  C         5.1104604597       14.6628592049       23.3753020167
  C         2.3813688733        8.1191502176       19.5528083747
  C         2.9941034274       10.3918142926       18.8808428246
  C        -0.8364080155       10.2634736027       28.1962393382
  C        -1.1313983704       11.5616063945       28.8585803079
  S        -1.0460504922       14.2387244141       28.6547551302
  H         5.7208923262       15.4297530060       23.8794367046
  H         4.4903641898       15.1674905566       22.7228143502
  C         5.9304628809       13.6629602760       22.5843180421
  N         1.9991218469        7.1011375679       20.4063997645
  C         2.8341782121        7.6213213245       18.3330611139
  C         3.4203593144        9.9120851496       17.6743113683
  H         3.1317803321       11.4824382667       18.9415983069
  C         0.2472530016        9.4484988259       28.9454654173
  C        -2.0838187362        9.4233646466       28.0040481311
  C        -1.4755198778       12.0654932054       30.1282802030
  C        -1.4321519164       13.4762916281       30.1979247267
  H         6.8838054860       14.0184780865       22.4181883216
  H         6.0417419354       12.7858873788       23.1983952804
  C         5.2785146145       13.2648310894       21.2590016293
  S         2.1132453651        5.6680561006       19.6295727707
  N         2.7061913171        6.2209129129       18.2780192494
  C         3.2111889411        8.4077308871       17.3373806279
  H         3.9091439344       10.5263843368       16.9528784965
  H         0.4503162694        8.6003227419       28.3746580762
  H        -0.1046762295        9.0492766553       29.8554264777
  C         1.5291921466       10.1692652154       29.3090201312
  H        -1.9097839996        8.8779652122       27.1431702437
  H        -2.2862486799        8.7384170197       28.8675300191
  C        -3.4382793292       10.2559136759       27.8648185105
  H        -1.7011934688       11.3213034562       30.8594159984
  C        -1.6661166230       14.2886647238       31.4313173531
  H         4.2139672604       13.2032691144       21.4302534538
  H         5.7090192923       12.2578247314       21.0136535278
  C         5.5948172357       14.1800619745       20.1267676330
  C         3.5155788739        7.7657195275       16.0863010092
  H         1.9161561984       10.8270182249       28.5193549880
  H         1.3019510254       10.8617936100       30.0658368637
  C         2.6801417595        9.1799735192       29.6357994939
  H        -3.2961471969       11.0574229815       27.1661871821
  H        -3.7814467260       10.6912597642       28.7912432115
  C        -4.5699945701        9.2384352538       27.4541842152
  C        -1.6668120969       15.6577317031       31.5497607901
  C        -2.0749556729       13.5115015187       32.6544378903
  H         4.7902611653       14.2781235895       19.4086924821
  H         5.8786631163       15.1302520032       20.5138315533
  C         6.8006744689       13.6678928044       19.4549524583
  H         3.3439917427        6.7266385240       16.1064802339
  C         3.8129577768        8.2736489551       14.8432098536
  H         2.9453652881        8.5001100277       28.8400217312
  H         2.4524460461        8.4092076040       30.4192028509
  C         3.9142473957        9.8837268327       29.9920479871
  H        -4.4039721063        8.7183654637       26.5504980537
  H        -4.7892004433        8.5352011469       28.2548308914
  C        -5.8211451014       10.0513153372       27.0394634524
  N        -1.3007281509       16.5138150386       30.5559113693
  C        -2.0649201281       16.2917217584       32.7255999105
  C        -2.4163682073       14.1058000073       33.8610795131
  H        -1.9422533604       12.4553781140       32.6711315799
  H         7.0931675174       14.5273591224       18.8723425917
  H         7.4921779631       13.3677530114       20.2317416739
  H         6.4629262757       12.8879575221       18.8307022739
  S         4.0326405467        9.8803329008       14.4527310103
  C         3.8931105109        7.3420883302       13.6631881073
  H         4.0450132607       10.7030421725       29.2921170269
  H         3.6920923370       10.2087112893       31.0270266884
  C         5.0841952770        8.8297678320       29.9916351834
  H        -5.8461639370       10.9170752956       27.6757050154
  H        -6.7330411082        9.4653743802       27.3178496106
  C        -5.9681614859       10.2988751337       25.5154690779
  S        -1.3762854171       18.0556429330       31.0830917817
  N        -2.0754355774       17.7114860842       32.5372594773
  C        -2.3648350756       15.5912491339       33.9460324404
  H        -2.5994542157       13.4045072658       34.6832492739
  C         4.4142347001        9.3131175463       12.7783798745
  N         4.3886341684        7.9861489445       12.6092715693
  O         3.6003426233        6.1153241397       13.7764781851
  H         6.0644902272        9.2438627889       30.0332465249
  H         4.9559617044        8.1629678627       29.0974336177
  C         5.1205465454        8.0305343836       31.3228324690
  H        -5.1137167367       10.8291133903       25.1801020610
  H        -5.9421670074        9.4143646604       24.9045629607
  C        -7.3071395622       10.9416615478       25.1732312450
  C        -2.5783175826       16.3601809489       35.0826619990
  S         4.7318795379       10.2447984678       11.3733275399
  C         4.5055476309        7.3163080351       11.2669804296
  H         5.7600470279        8.5397995378       32.0689833695
  H         4.1149852192        8.0371335732       31.8465553384
  C         5.6609726785        6.5871676784       31.2674638728
  H        -7.2360371362       11.3227008647       24.1263696287
  H        -7.5043732883       11.8614089591       25.8219227123
  C        -8.5031268667        9.9223413950       25.0941765694
  H        -2.2963289261       17.3720404782       34.9212384073
  C        -2.9785441855       15.9656163829       36.3351153206
  H         5.0429264679        7.7177051664       10.3948969475
  H         5.0106694686        6.3793100246       11.5003657266
  C         3.0582219076        7.1372334770       10.7709157402
  H         5.2381596971        6.0460007946       30.4359854468
  H         5.2022977092        6.1792015633       32.1627629047
  C         7.1568228672        6.4915163886       31.4223124786
  H        -9.1930925877       10.0389770571       24.1757247575
  H        -8.0851654462        8.8965892056       24.9252037643
  C        -9.4482517616        9.7994514846       26.2116195023
  S        -3.5053270712       14.4878660332       36.8246020776
  C        -3.0428367965       16.9912126842       37.3978052113
  H         2.5776524249        6.3715164032       11.2966192850
  H         2.4522995263        8.0850994707       10.9660483739
  H         3.1432044653        7.0603720034        9.6798783748
  H         7.4777980105        6.7061304957       32.4492495671
  H         7.4583516826        7.2241479856       30.6782240379
  H         7.5447540030        5.5037467104       31.0607076969
  H        -9.1821229242        8.9018584863       26.8003343375
  H       -10.4282796445        9.4693810769       25.7848628520
  H        -9.6031972965       10.6741791757       26.8588892148
  C        -3.8206887306       15.1678870394       38.4756265110
  N        -3.5992941592       16.5183217318       38.5073104824
  O        -2.6825201548       18.1336755618       37.2686336508
  S        -4.5290897456       14.3475329847       39.9135271275
  C        -3.7804297174       17.3967816106       39.7025110140
  H        -4.1098131734       18.4472109602       39.5190015181
  H        -4.5242864432       17.0095512893       40.3379278282
  C        -2.4292188398       17.5308474048       40.4023588958
  H        -1.8998394709       16.6850458686       40.7465875928
  H        -1.7265737344       18.1236516917       39.8275658548
  H        -2.5725772838       17.9638054951       41.3409234257
