352
i=
  H         3.5518014191        3.4649661986       12.5823811437
  C         3.1365952131        2.4588709536       12.5682946518
  H         2.3574168619        2.5611745923       13.2164046208
  C         2.6961626613        2.1366669090       11.1598381219
  C         4.1439663981        1.4687898218       13.1551851768
  C         3.6539155734        2.6134415428       10.0790709737
  H         1.7420680749        2.6035392358       10.9921334330
  H         2.5796388451        1.0773049513       11.0237583568
  H         3.7382780232        0.5526846807       13.3635770766
  H         4.7372571108        1.8126495443       14.0218852118
  H         4.9265224045        1.4095347299       12.4243803125
  C         4.2414033297        1.3638906311        9.3439577386
  H         2.9990118418        3.1635891959        9.3993286169
  H         4.4098804985        3.2936602011       10.4718337364
  C         5.0811623964        1.5845228999        8.0974995674
  H         3.4385024345        0.7056879386        9.0003914369
  H         4.8255196993        0.7839621126       10.1101366855
  C         6.2939355893        2.4391416684        8.2864556527
  H         4.5643661633        2.1716476232        7.3310052029
  H         5.3882066909        0.6064045031        7.7411179172
  C         7.5915674573        1.6173362551        8.7301966995
  H         6.3185818797        2.9367068408        7.3014034800
  H         6.0623691846        3.2118918688        8.9550967379
  C         8.7526383603        2.5663035816        9.1182331171
  H         7.9453508809        0.9965673885        7.9567352266
  H         7.3164317744        0.9808756881        9.5671602247
  C         8.3190326904        3.8261071000        9.8810578003
  C         9.1773566142        3.3697017526        7.9434752592
  C         9.8413112690        1.9130204106        9.8638121971
  C         8.3835087818        4.9613249910        9.0945571846
  C         7.9502591137        4.0582007976       11.2162749705
  C         9.0570691060        4.6898540109        7.9122975837
  C         9.8138015049        2.8020334262        6.8661064467
  H         9.5357609390        1.5161424879       10.8245329113
  H        10.2657795477        1.0612637050        9.3028860345
  C        11.0393004915        2.9277454187       10.1463646359
  S         7.6165260684        6.2965447254        9.9010422285
  C         7.6822558380        5.4430051408       11.3822184437
  H         7.9612283714        3.2678980058       11.9143859988
  C         9.4854167307        5.3329417038        6.8018123033
  H         9.8147825215        1.7230746132        6.9275385227
  C        10.2091494088        3.4365966470        5.7152663461
  H        10.5791321511        3.7334649350       10.7371493636
  H        11.5850379856        3.2991520357        9.2049667383
  C        12.1002912472        2.1284974300       11.0536446984
  C         7.0771921554        6.0319253913       12.6668400394
  C        10.0380257856        4.7641118322        5.6557751861
  H         9.3230259967        6.4070009069        6.7471559163
  C        10.5930570656        3.0869228674        4.4511950745
  H        13.1073015804        2.5728048396       10.9773677839
  H        12.2867405111        1.0370803162       10.8642633213
  C        11.7138898853        2.2723783809       12.5088607180
  C         7.2485919487        7.4196842788       12.9885479471
  C         6.7536887715        5.1714076040       13.8316018243
  C        10.3668140293        5.5201816901        4.3475875218
  C        10.7369691093        4.2256355476        3.6262212996
  S        10.8074962999        1.6523978556        3.6495795415
  H        11.5440471255        3.3708279691       12.7543807296
  H        10.7727362201        1.7283382741       12.7707211269
  C        12.8843160657        1.9001635147       13.4292443557
  N         7.5879289299        8.4452933203       12.0847530745
  C         7.1834871470        7.9087624038       14.2900179090
  C         6.5750096261        5.6483143716       15.0900546110
  H         6.5358056945        4.1123790706       13.6467138088
  C        11.5494000037        6.5148476232        4.6528906207
  C         9.1953808533        6.1581273463        3.5467041936
  C        11.1070949846        3.8672666112        2.2787761211
  C        11.1534000402        2.5306384372        2.1842887066
  H        13.6509847326        2.7016136893       13.4609966825
  H        13.3124859136        1.0355362003       13.0426832269
  C        12.3291360996        1.6033170496       14.8455519687
  S         7.7459774725        9.8538970039       12.9101507986
  N         7.5571525902        9.2635831928       14.3767048369
  C         6.6946022789        7.0676649035       15.3496050908
  H         6.3245403196        4.9357719704       15.8828752461
  H        11.2346034803        7.2220988438        5.3767197857
  H        11.7202889329        7.0609395541        3.7860643066
  C        12.7843756639        5.7763362880        5.2506172126
  H         8.7845277719        6.8930249615        4.2260406863
  H         9.4645884704        6.6877077773        2.6265012737
  C         7.9887678255        5.1746895808        3.2835088636
  H        11.3915492268        4.6311986395        1.5889270402
  C        11.6073913861        1.7487227997        0.9742509533
  H        11.7452976870        2.4665279852       15.0835989097
  H        11.7218649776        0.7291248078       14.9505945084
  C        13.3642141730        1.4948415392       16.0078204056
  C         6.5001260791        7.7508036359       16.5821093790
  H        12.4784989005        5.3994978449        6.2433372303
  H        13.0917386396        4.9458579920        4.6375955957
  C        13.8980662898        6.7671716685        5.4658125725
  H         7.8695624731        4.4891801889        4.1407142379
  H         8.1746750970        4.6157215996        2.3777719639
  C         6.6807278096        5.9969644744        3.1218465135
  C        11.7127765573        0.3238610043        0.8105872243
  C        12.0356428897        2.4814367897       -0.2719350144
  H        14.3320617663        1.3617389833       15.5932265631
  H        13.2434126212        0.5352660937       16.4392682878
  C        13.4161618781        2.4897767708       17.1813325669
  H         6.7439815488        8.7392700026       16.6042526670
  C         6.2681119531        7.3088140170       17.8852144542
  H        13.6595678499        7.4650140812        6.2784383676
  H        13.9220939904        7.3083427119        4.5532375917
  C        15.0883243089        5.8231022000        5.7103917078
  H         5.8490971741        5.2967995751        3.2155477753
  H         6.5084413905        6.7185586327        3.9179791512
  C         6.6578377073        6.6929330515        1.7917401682
  N        11.4991301726       -0.6263506766        1.8236220786
  C        12.0479868027       -0.2592540858       -0.4083551800
  C        12.4613035398        1.8276348109       -1.4240026952
  H        12.0584680974        3.6025452735       -0.3574772509
  H        14.4681330380        2.6772130061       17.2875262237
  H        13.0533795924        2.0331691937       18.1345794953
  H        12.8773563189        3.4053409659       16.9123372742
  S         6.0903420533        5.6956561014       18.4322811942
  C         6.1511381080        8.3707226250       18.9086947104
  H        14.6504615453        4.9659930952        6.2986491861
  H        15.4962182865        5.4409245668        4.7264684079
  C        16.2630024213        6.3383136960        6.4262184426
  H         7.1227529858        6.0106480074        0.9891390106
  H         7.1787069911        7.6463282807        1.9150697916
  C         5.2381224999        6.9440248498        1.3176388864
  S        11.8260727399       -2.0775908445        1.2178666327
  N        12.0734699075       -1.6089794119       -0.3361138155
  C        12.3671192814        0.3559242429       -1.6059667629
  H        12.5721489646        2.4111051004       -2.3221736239
  C         5.8326142336        6.5059396573       20.0103624375
  N         5.8024068989        7.8393186340       20.0650868219
  O         6.4266715979        9.5677963645       18.6931339139
  H        16.9516046178        6.8888634464        5.7411687137
  H        15.9115029854        7.0041803510        7.1901445069
  C        17.1455753755        5.1272800123        6.8908958976
  H         5.3029925003        7.1676922075        0.2309354701
  H         4.7204269425        5.9796232204        1.3615402636
  C         4.3122009795        7.9268484788        2.1282813252
  C        12.6592170848       -0.3692157497       -2.7859423170
  S         5.2886992425        5.5319581465       21.4466944446
  C         5.6143683034        8.6274270882       21.3003623292
  H        16.5647861679        4.5635201383        7.6313280200
  H        17.3499474460        4.4733140038        6.0854817113
  C        18.3958796000        5.6508850407        7.6623749296
  H         4.9000608113        8.4119503968        2.8669151977
  H         3.6183405587        7.2594798838        2.6996796729
  C         3.6189274950        8.9979355715        1.3185746387
  H        12.1004477914       -1.3046366166       -2.9124076613
  C        13.3368963181       -0.0372850216       -3.9565545010
  H         4.9565149236        8.1370222062       22.0409022713
  H         5.1854910444        9.5886163557       21.0922484466
  C         6.9312965145        8.8589097083       22.0998184926
  H        18.6160672156        5.0645773798        8.5216434189
  H        18.2193192875        6.6210154809        8.0441690940
  C        19.4402973634        5.9037550040        6.6113503535
  H         4.3536928862        9.5643777286        0.7473506735
  H         2.9438480754        8.5190471426        0.5931278931
  C         3.0163781428       10.0683329989        2.2354577386
  S        13.9036941740        1.4710265823       -4.4067808063
  C        13.3594573848       -1.0797508234       -5.0639592412
  H         7.5776871363        9.3946165368       21.3923888045
  H         7.5599606337        7.9523891372       22.3435218721
  H         6.7975735131        9.4030473901       22.9692078307
  H        19.5501635806        6.9913886008        6.4308507843
  H        20.3485232161        5.5901739109        7.0885178657
  H        19.3292571588        5.4262512576        5.6954738971
  H         3.7364144041       10.8145513401        2.4164834061
  H         2.1603219142       10.5499942736        1.7301021176
  H         2.6489040154        9.5683727513        3.1223366953
  C        14.1751114802        0.8102585993       -6.0366033074
  N        13.9903748751       -0.5727396243       -6.1006206021
  O        12.9922776327       -2.2715105441       -4.9174062411
  S        14.7518606287        1.7008099278       -7.4398809779
  C        14.0751797206       -1.3446698148       -7.3821733913
  H        14.3347769245       -2.3631788490       -7.1543110833
  H        14.8593319763       -0.9467189363       -8.0249824156
  C        12.9094153485       -0.9994202550       -8.2043752723
  H        13.0859800788       -1.0073340124       -9.3098539189
  H        12.5407729260       -0.0181587420       -7.9992864800
  H        12.0873636566       -1.6932975880       -7.9922393021
  H        -2.5119963589       12.3990108964       16.9934565297
  C        -2.7321295657       13.3529586960       16.4594227847
  H        -1.8259791482       13.4599058262       15.9367006756
  C        -2.9285127213       14.3552373365       17.5704083700
  C        -3.9359933331       13.1626455640       15.5022440704
  C        -3.2869186418       13.7209131897       18.9333589974
  H        -2.0380648464       15.0239224004       17.6387199820
  H        -3.7984849755       14.9487522564       17.3061622547
  H        -4.8032284750       13.6854328746       15.7889177976
  H        -3.5510106514       13.4880690547       14.5327733155
  H        -4.1595362465       12.1132325673       15.2915302975
  C        -2.1344965325       13.1222480349       19.7413176087
  H        -4.1193307655       13.0576174080       18.9242582744
  H        -3.7008190915       14.5582386040       19.4469421982
  C        -2.5208868229       13.0865848717       21.2693503605
  H        -1.9548964142       12.0700800457       19.4526501149
  H        -1.2432962896       13.7528824092       19.5374153924
  C        -1.4064633927       12.4339011855       22.0712753202
  H        -3.4379617388       12.5133576949       21.3236864611
  H        -2.7482028534       14.1226603862       21.5874174021
  C        -0.3512709550       13.5063567338       22.4681258615
  H        -1.9007381866       12.2052431538       22.9866755659
  H        -1.0736849483       11.5301933743       21.6172403061
  C         0.7906299482       12.8432340287       23.3432094396
  H        -0.0324485646       13.9146089818       21.5425073350
  H        -0.7931213331       14.3829199266       23.0142368171
  C         1.2460561710       11.5760697504       22.5709269045
  C         0.3741218122       12.0203193973       24.5519224884
  C         2.0388265708       13.7476690161       23.6467372981
  C         0.9911223629       10.4289541157       23.3188100713
  C         1.8558386056       11.2899001457       21.3022248023
  C         0.4820747333       10.6834377390       24.5778365934
  C        -0.1674385236       12.6299114376       25.7039607447
  H         2.3425378807       14.3861601968       22.7936132859
  H         1.7513516067       14.3062240435       24.5588656810
  C         3.2833270946       12.9606903786       24.0214293386
  S         1.4113049571        8.9580104995       22.4708191887
  C         1.9256777951        9.9184980940       21.1572063810
  H         2.1135828697       12.1279405210       20.6480725194
  C        -0.0084836060       10.0325079332       25.7076050730
  H        -0.2693109395       13.6913984011       25.6995744220
  C        -0.5552482759       11.9470470971       26.8029805948
  H         3.6647990677       12.1545332885       23.3453153829
  H         3.1241088130       12.4947855575       24.9605361454
  C         4.4881012482       13.8574178038       24.2192486135
  C         2.4232506076        9.2309230984       19.8607101483
  C        -0.5525003475       10.5979481819       26.8626902104
  H         0.0589025369        8.9632907726       25.7104235513
  C        -1.0971166240       12.3294848804       28.0022269521
  H         5.1955342650       13.3162057676       24.8078654168
  H         4.1979420183       14.7725505595       24.7340424631
  C         5.2019950171       14.4074214919       22.9153965942
  C         2.5409483983        7.8427788125       19.6360535846
  C         2.7738569767       10.1135544069       18.7367000193
  C        -1.0075449681        9.9103103364       28.0858774874
  C        -1.3054394469       11.2265621942       28.8057664908
  S        -1.2301465204       13.8355864828       28.8448550968
  H         6.0653740495       15.0452426843       23.1898900211
  H         4.4506841883       15.0494663448       22.5211821846
  C         5.7959697179       13.3325425055       21.9926538827
  N         2.1818844550        6.7689198061       20.4988867434
  C         2.7361058525        7.3054209573       18.3395857402
  C         3.1200374130        9.6189394814       17.4907402824
  H         2.9052812874       11.1848841547       18.8496171753
  C         0.1092550442        9.1353928577       28.8761288989
  C        -2.2215220712        8.9727679059       27.7729478120
  C        -1.6100059971       11.6226388672       30.1413783761
  C        -1.4817314840       12.9368156413       30.3062038192
  H         6.8705189492       13.5578472208       22.0504426087
  H         5.5918075880       12.3480953981       22.3432792075
  C         5.2748863992       13.4782567928       20.6024557972
  S         2.3953775339        5.3924727509       19.7897598848
  N         2.7120206149        5.9149147805       18.2700480335
  C         3.0822415117        8.1076992938       17.2266621856
  H         3.4508671625       10.3395429363       16.7434766165
  H         0.5030258400        8.4616101352       28.1882682064
  H        -0.3689536978        8.6301315148       29.6699983936
  C         1.3328290998       10.0059569111       29.2661110122
  H        -2.1269428354        8.4219258445       26.8631649487
  H        -2.2774737548        8.2033313886       28.5616114993
  C        -3.5486329748        9.7460852517       27.6643336243
  H        -1.7913104763       10.8952289183       30.8759202938
  C        -1.7072051154       13.6552067317       31.6144544069
  H         5.1598342922       14.5702326574       20.4958325026
  H         4.2825135681       13.0734432505       20.4683692693
  C         6.2861459235       12.8304233551       19.6223171805
  C         3.2862487428        7.4605770133       15.9894518146
  H         1.5983492982       10.5233876971       28.3476868776
  H         1.0374960617       10.8282345541       29.9425801064
  C         2.5249955216        9.2048484479       29.7442962271
  H        -3.3933072667       10.5222709606       26.9244288723
  H        -3.7520548024       10.3346679592       28.5066763793
  C        -4.8231289902        8.8679730020       27.2453298947
  C        -1.8256541369       15.0511818176       31.8570416639
  C        -1.7820308836       12.8473344292       32.8304030186
  H         7.2032877833       13.3243819993       19.6777718192
  H         6.4646698316       11.7616841244       19.9844232704
  C         5.6763876189       12.8551577473       18.1805801435
  H         3.1676968725        6.4606087067       15.9949082531
  C         3.4796298939        7.8392970627       14.7073646177
  H         3.0756482768        8.8247592778       28.9166953308
  H         2.1427988092        8.4124782803       30.4201123005
  C         3.4296923046       10.0431526898       30.6119212278
  H        -4.5805576360        8.2444877345       26.3685205514
  H        -5.0583936089        8.1147034319       28.0140149052
  C        -5.9662111823        9.6928894027       26.8740738721
  N        -1.7497387838       15.9777062634       30.8308508463
  C        -2.0722387964       15.6242525589       33.0946359955
  C        -1.9849661757       13.4123696379       34.0908763253
  H        -1.5571072438       11.7878565249       32.8389049060
  H         5.0691766353       11.9678726207       17.7940061744
  H         5.2830572501       13.8357526699       18.1240612956
  H         6.5316232274       12.9371596864       17.5127283450
  S         3.9932150919        9.4302434913       14.2166005899
  C         3.4935234691        6.7687553004       13.6612924697
  H         3.5063799971       10.9664411748       30.0307668557
  H         2.9350134175       10.2109163358       31.5464526548
  C         4.7871011210        9.2728951522       30.6685968566
  H        -6.0932885165       10.6131168725       27.4362057209
  H        -6.8203314091        9.0703938216       27.1794036130
  C        -5.9679963276       10.1437279421       25.3853786255
  S        -1.7757556648       17.4836988566       31.5372750849
  N        -2.2380836311       16.9933023893       32.9966394558
  C        -2.2780999106       14.8630738378       34.2818127445
  H        -1.8149008784       12.7377330177       34.9634678583
  C         4.1068859355        8.7097298201       12.5768106949
  N         3.8088872749        7.3799852374       12.4914807613
  O         3.4061474134        5.5175406952       13.7982556282
  H         5.4630351312        9.9605185172       31.1671981610
  H         5.2231068418        9.1850210241       29.6870385999
  C         4.7860855876        7.8669720214       31.4339098921
  H        -5.0096221049       10.6544198345       25.2382133326
  H        -5.8285722940        9.2831462304       24.6722295411
  C        -7.1538113352       11.0291537612       24.9489068378
  C        -2.6034710495       15.5682353736       35.4985364888
  S         4.5565093961        9.6250071870       11.0696264528
  C         3.6689312047        6.6153241679       11.2322883893
  H         4.7101828277        8.0251725578       32.4575290270
  H         3.9025749234        7.3302260068       31.3887733530
  C         5.8884814422        6.8915409739       31.1111413667
  H        -6.9716434152       11.0925965931       23.8940024341
  H        -7.1881569352       12.0394938489       25.3889172807
  C        -8.4115959707       10.3035615289       25.0280186138
  H        -2.4759862476       16.5690022298       35.4666411417
  C        -3.2595855139       15.1770283819       36.6067478946
  H         4.4585049048        6.9013869956       10.5348374532
  H         3.6722564977        5.5601289786       11.4660707224
  C         2.3274011425        6.7447842944       10.5057139605
  H         6.8171861061        7.2818460581       31.4492342010
  H         6.0244504415        6.7163750071       30.0465579071
  C         5.6456142610        5.6282589901       31.9022179803
  H        -8.9642658532       10.5339953539       24.1409959031
  H        -8.2272799449        9.2466175714       24.8899506103
  C        -9.2780919370       10.7256391395       26.2593462641
  S        -3.8940117027       13.6206363392       36.9679466295
  C        -3.4900479953       16.2901627382       37.5373002044
  H         2.4940020202        6.4286276863        9.5372387321
  H         1.4682876810        6.1319539269       10.8767547905
  H         2.0765297992        7.7698626291       10.3294330647
  H         6.5240849368        4.9821328156       31.7830213315
  H         4.8426078523        4.9813071520       31.4185867067
  H         5.5189721122        5.7603549150       32.9964228507
  H        -9.1349330853       11.8311214639       26.5086651586
  H        -8.9092861841       10.2626413071       27.1240069409
  H       -10.3755234875       10.6046164590       26.2565423381
  C        -4.6362258119       14.4276394670       38.3578150803
  N        -4.3212337181       15.7556364576       38.4842990002
  O        -3.1682954361       17.4437473423       37.3345550141
  S        -5.5826607048       13.5623580485       39.6534177548
  C        -4.6739556695       16.5540799767       39.6656712216
  H        -4.5980436492       17.5906882388       39.4444199643
  H        -5.6551916341       16.3539876265       39.9738170390
  C        -3.5753211150       16.2937354253       40.7279614611
  H        -3.5963523224       15.2513213979       41.0459048509
  H        -2.5688563110       16.3923929022       40.3305554315
  H        -3.8273510229       16.9744626487       41.5119196402
