352
i=
  H         2.3077733986        1.3261279889       13.7908941182
  C         3.1788848328        1.6298841204       13.1290620061
  H         3.7890152273        0.7625752287       12.8953621590
  C         2.6200377930        2.0658152878       11.7852953093
  C         4.0256695250        2.5245060268       14.0152181902
  C         3.7959018350        2.3049599749       10.9174223926
  H         2.1045348411        2.9975348164       11.8745378569
  H         1.9993624734        1.3154628569       11.3518824739
  H         4.6408272586        2.0375034993       14.7819988062
  H         3.4287029015        3.1378792572       14.6483298829
  H         4.8484436697        3.0463501369       13.4449949811
  C         4.4915918802        1.1296977907       10.2743586610
  H         3.5302730104        3.0578726761       10.2356967515
  H         4.5902953869        2.8394162080       11.4352078880
  C         5.1419699974        1.3640543477        8.8788051691
  H         3.9348455516        0.1928343117       10.0722254262
  H         5.3050275479        0.8340453280       11.0156554179
  C         6.2711983788        2.3510493105        8.9656403981
  H         4.2972110018        1.7884044468        8.1896387768
  H         5.4779802522        0.5187379811        8.3034245942
  C         7.6489527446        1.7009594488        9.3167345724
  H         6.4325893875        3.0412299853        8.0929918930
  H         6.0565634382        3.0490678772        9.7656976287
  C         8.8222514234        2.6900922075        9.5135332213
  H         7.8053029511        0.8518694389        8.7134595119
  H         7.4766143883        1.4175273922       10.3686410384
  C         8.5391972177        4.0446732298       10.2069596529
  C         9.2138022780        3.4415081114        8.2547135637
  C        10.0061688874        1.8956349686       10.1534179641
  C         8.6953266599        5.1404045306        9.3699706642
  C         8.0766050684        4.4679730384       11.4973793965
  C         9.2029623642        4.7542534802        8.1065640576
  C         9.6178173470        2.8079393002        7.0553034682
  H         9.6339899902        1.4351915966       11.0716518239
  H        10.2984175526        1.0494778923        9.4570116635
  C        11.2768811964        2.7684651980       10.3383733709
  S         8.3527835841        6.7033159175       10.1257021606
  C         7.9601612708        5.8940695077       11.6561582345
  H         7.8970386317        3.6914873926       12.2334753951
  C         9.5114398209        5.3072747893        6.9321993514
  H         9.6932579011        1.6790660847        7.1357294317
  C        10.0512900721        3.3661064589        5.8751081238
  H        11.0836531571        3.8449123123       10.6126686917
  H        11.7655518777        2.8189143438        9.3928189425
  C        12.3854237632        2.1507614633       11.1960403479
  C         7.4566146544        6.6447351518       12.8414929219
  C        10.0172373521        4.7286071369        5.7334495436
  H         9.4527822139        6.4058233670        6.8847853601
  C        10.5843754758        2.9706624886        4.6567949144
  H        13.2338830262        2.7671239702       11.1837629529
  H        12.6066742701        1.1296205641       10.8052680849
  C        11.8243319888        2.1452717875       12.5580184449
  C         7.5570700194        8.0612527496       12.9734712622
  C         6.9950224107        5.9274485358       14.0722880526
  C        10.3832898935        5.3990869144        4.4740968895
  C        10.7165707356        4.0431003518        3.8389019816
  S        11.0144135998        1.4638653718        3.9348297859
  H        11.2209528358        3.0211672490       12.6941426470
  H        11.1853809224        1.2511434815       12.7615060109
  C        12.9007044767        2.2020232386       13.5579531418
  N         7.9625861764        8.9338580980       11.9898514354
  C         7.2948377871        8.6952722450       14.1384896947
  C         6.7571887633        6.5598715237       15.2881693415
  H         6.7964879226        4.8551170237       13.9579989405
  C        11.6068226915        6.4165482592        4.6958469818
  C         9.2215447025        6.1798965094        3.7342016220
  C        11.2424124722        3.6588217137        2.5996957162
  C        11.2764692702        2.2811786600        2.4559880106
  H        13.6531950964        2.9546105730       13.3015199448
  H        13.3060781133        1.2180269329       13.6090423891
  C        12.1691706222        2.3682801206       14.9103639983
  S         7.8074980071       10.4319637669       12.5187869284
  N         7.3689559408       10.0613649208       14.0589152842
  C         6.9598677636        8.0131373192       15.3233768425
  H         6.3365661824        5.9583879680       16.0987013517
  H        11.4066607991        7.1174870093        5.5011221523
  H        11.7854722255        7.0873700807        3.8960986550
  C        12.9481229701        5.7580536288        4.9088538667
  H         8.9097297372        7.0936612523        4.2481728470
  H         9.6151553641        6.6839531723        2.8634512655
  C         7.9980276241        5.3405762189        3.4375130265
  H        11.4015833533        4.4578555990        1.7943590123
  C        11.7161982005        1.6079746294        1.2349976818
  H        11.7793142874        3.4174769582       14.8433224215
  H        11.2001053508        1.8474629759       14.9845182063
  C        12.9526846725        2.2591328033       16.2402874514
  C         6.5877009931        8.8516721765       16.4797741737
  H        12.7748934231        4.7811591893        5.4773443916
  H        13.3010999558        5.5006916658        3.8959317981
  C        13.9923470802        6.5934270578        5.6051863962
  H         7.2563189185        5.6790813654        4.2339887512
  H         8.2034820730        4.2905936149        3.6168500869
  C         7.5489900755        5.5488859820        1.9913164520
  C        11.7309519149        0.2113863170        1.0609481686
  C        12.0218408909        2.4191832541        0.0370795607
  H        13.7037939147        3.0181202634       16.1758764984
  H        13.4902267211        1.2792510404       16.2608268572
  C        12.0498509531        2.3776142177       17.5134390445
  H         6.4879981022        9.9405985017       16.4475501585
  C         6.4975871694        8.5890493103       17.8187845935
  H        13.4834195501        7.0962036610        6.4483456908
  H        14.3821061732        7.3291037715        4.8366038350
  C        15.0004886078        5.7516121974        6.4877348080
  H         7.7959411387        6.5832480223        1.6688059953
  H         8.1757479858        4.9381496524        1.3438949019
  C         6.1484769234        5.2711800831        1.5526366915
  N        11.4235080206       -0.6734852217        2.0168543676
  C        12.0947311888       -0.4555386195       -0.1204646610
  C        12.3187712576        1.7267129516       -1.1189578046
  H        12.0884945971        3.4934257548        0.0209759737
  H        11.6515813670        3.4159005042       17.4771189383
  H        12.7003283673        2.3905044579       18.4590937144
  H        11.2683489078        1.5916078896       17.5522896880
  S         6.3825289299        7.0695366479       18.6903727683
  C         6.3993334336        9.7426651974       18.7634595112
  H        15.4188847393        6.2465905231        7.3944489334
  H        14.3949342804        4.9297702600        6.8998703057
  C        16.3539407110        5.3941538561        5.8113420392
  H         6.1038160187        4.1951682795        1.6558805502
  H         6.0008453435        5.4748890364        0.4986352121
  C         5.0740766451        5.9954257754        2.3711326329
  S        11.8449746950       -2.1899652786        1.5811841696
  N        12.0816973080       -1.8609607308        0.0198085169
  C        12.3835848944        0.2551750544       -1.2551396349
  H        12.6013655368        2.3435419346       -1.9578192536
  C         6.2452772286        7.9535609479       20.1690422314
  N         6.1287283530        9.2828228817       20.0211187927
  O         6.4569604067       10.9084923530       18.4802566943
  H        16.1812847216        4.5215209939        5.0904846735
  H        16.7557551166        6.2275215889        5.2766985316
  C        17.3603333857        4.9135924059        6.7872901805
  H         4.0535345295        5.5632374930        2.1262741896
  H         5.1153520068        5.9601594856        3.4643656268
  C         5.1557070800        7.4876243628        1.9789668915
  C        12.5467417809       -0.3896354093       -2.4570367397
  S         5.8995698060        7.3516791342       21.8000110295
  C         6.2524943522       10.1823773892       21.2252618381
  H        16.9733824563        4.2983064779        7.5182993860
  H        18.0628163311        4.2882565010        6.2214691392
  C        18.1894642368        6.0636996494        7.3565791802
  H         4.9979445000        7.4072138261        0.8711355866
  H         6.1298229232        7.9670190962        2.1829974624
  C         4.0771872346        8.3988169918        2.5564657080
  H        12.5877390194       -1.4462345263       -2.4528302876
  C        13.0591547755       -0.0030860755       -3.7230202924
  H         5.5965477018       10.0010845751       22.0194377994
  H         5.9089116943       11.2111406024       20.9442121667
  C         7.7565501255       10.2009012953       21.5886938846
  H        17.4761979788        6.7182124861        7.8596518812
  H        18.5716134249        6.6477189683        6.5638418090
  C        19.2080987100        5.6062707818        8.4311547801
  H         3.1382765288        7.9482141956        2.6346445510
  H         4.4064083744        8.8528757406        3.4194052986
  C         3.8851124809        9.7236868024        1.7916919251
  S        13.5874738231        1.5423775563       -4.2774167886
  C        13.2359633885       -1.0668006872       -4.7681444074
  H         7.8150503128        9.8502827006       22.6279234203
  H         8.1825209578       11.1425938395       21.7090949170
  H         8.3967779423        9.6879755077       20.8932820682
  H        18.6762653317        5.0705276504        9.2143899869
  H        19.9526857982        4.8922110550        8.0128175147
  H        19.8037113595        6.4350692196        8.8307777772
  H         3.2027047372       10.3563480922        2.3916241084
  H         4.7569641916       10.3760299481        1.7688457728
  H         3.4633014012        9.5869311921        0.7815835740
  C        14.0195592942        0.7391771481       -5.7824227816
  N        13.8376199781       -0.5400393326       -5.8575387594
  O        12.8098593417       -2.1897158493       -4.6406337134
  S        14.7694282907        1.5889920679       -7.1196959909
  C        14.0372522199       -1.3219454341       -7.1148769335
  H        14.3589330386       -2.3122822495       -6.8434905176
  H        14.8764025805       -0.9391265012       -7.6374481991
  C        12.7978819082       -1.2805785883       -7.9875309699
  H        12.8350946846       -0.5578656245       -8.7373350276
  H        11.9668374461       -0.9806085335       -7.3772448527
  H        12.6823534317       -2.1752713393       -8.5132198831
  H        -3.1269461666       15.1351301601       16.5972127889
  C        -2.9769501016       14.0784851170       16.8824440596
  H        -3.8278395044       13.7303159059       17.3841012491
  C        -1.7728833239       13.9429808285       17.8444017411
  C        -2.8920059784       13.3128202460       15.5639484419
  C        -2.0570394603       14.1571759764       19.3017325311
  H        -1.3431878863       12.9308657940       17.8161117442
  H        -0.9223799644       14.6095560287       17.5397858980
  H        -2.7495147042       12.3209185964       15.8894782747
  H        -3.8620767594       13.3473106128       15.1617889468
  H        -2.1166562512       13.6271543198       14.8626674619
  C        -1.7904734400       12.9087910937       20.1694405943
  H        -3.0520421845       14.3601320822       19.4454034675
  H        -1.3340999047       14.9286488585       19.6299415635
  C        -1.9708554102       13.1833833626       21.6983837267
  H        -2.4261812179       12.1160248607       19.8278691601
  H        -0.7852014644       12.6407950766       19.9486565609
  C        -0.8285033293       12.6565739045       22.6008381909
  H        -2.9504651887       12.6916274651       21.9341835373
  H        -2.1714250661       14.2029956308       22.0548609540
  C         0.3197477797       13.6639906553       22.7060440818
  H        -1.2511150847       12.5242735944       23.6147045300
  H        -0.4881738772       11.7231132798       22.2593859655
  C         1.5621730639       13.0326109588       23.3835147199
  H         0.6156633696       13.9717334825       21.7125851136
  H        -0.0924378859       14.5445724035       23.2429750723
  C         2.0479113653       11.7315032557       22.6089909218
  C         1.1399693907       12.3110557327       24.6112961180
  C         2.6792080352       14.0889414583       23.6702859115
  C         1.8166011219       10.6258282763       23.3700995068
  C         2.7407881891       11.3525274642       21.4177022872
  C         1.2930380399       10.9631344704       24.6441797388
  C         0.6745681120       12.8648909808       25.7795600443
  H         2.7629273961       14.7043249436       22.8061030138
  H         2.3795805974       14.7097811886       24.5058458821
  C         4.0209357680       13.3784228666       23.9176321734
  S         2.0792596333        9.1034627804       22.6182347622
  C         2.6546383172        9.9818418957       21.2625273729
  H         3.0179124946       11.9950992994       20.6780956419
  C         0.8720776578       10.2921288742       25.7556052916
  H         0.4124242550       13.8817456665       25.7845706832
  C         0.3935233832       12.1995357361       26.9030261022
  H         4.4357841071       12.7367003634       23.1185349981
  H         3.9430160220       12.7580878281       24.8252411898
  C         5.0692985453       14.4548634218       24.1165682080
  C         2.8837866362        9.2323193913       20.0008647171
  C         0.4854635332       10.8318188866       26.9950872321
  H         0.9796002889        9.1978827284       25.7028740847
  C        -0.0937718454       12.5839204480       28.1729086623
  H         6.0394560543       14.1542739241       24.5864949218
  H         4.6212439465       15.2581952114       24.6338072160
  C         5.6521008707       14.8736968094       22.6980089983
  C         2.9039489139        7.8232817019       19.8498917089
  C         2.9127546818       10.0626860771       18.7598191342
  C         0.1417489292       10.0979629277       28.3140058019
  C        -0.1493606706       11.4641311608       28.9712306383
  S        -0.5060467610       14.0094395703       28.9140985985
  H         6.1154444932       15.8509037051       22.7104904390
  H         4.8673225464       14.9321192361       21.9438310079
  C         6.8002806967       14.0383128552       22.2297261608
  N         2.7524627681        6.8809902532       20.8675317588
  C         3.0139155754        7.2530008118       18.6042367964
  C         3.2141278128        9.4766125821       17.5738164344
  H         2.8461119667       11.0800066585       18.8509944255
  C         1.3485313000        9.2863922694       28.9468222446
  C        -1.2315507015        9.4105031533       28.3467408471
  C        -0.5599244629       11.7880021286       30.2980899836
  C        -0.7762272276       13.1711291073       30.3567472174
  H         7.6621305868       14.6699337636       22.5942244972
  H         6.7111583179       13.0969064946       22.6419325557
  C         6.6914651322       14.0202403389       20.7398604767
  S         2.7789554783        5.4065730063       20.1840085450
  N         2.8772184054        5.8875254668       18.6234746567
  C         3.2213184076        7.9505967899       17.4069810955
  H         3.3311599328       10.1398809686       16.7693853707
  H         1.9107105672        8.8122927865       28.1480221329
  H         0.8849530499        8.5444989536       29.6024336991
  C         2.3797517052       10.2546025636       29.6465402325
  H        -1.1120485212        8.5239893786       27.6513226055
  H        -1.3547932925        8.9129852264       29.2636113148
  C        -2.4608015392       10.2480411006       27.9513067649
  H        -0.6379088235       10.9813843170       31.0372499039
  C        -1.1611124937       13.9131202968       31.5922738268
  H         6.1121079930       14.8519446695       20.3693420295
  H         6.0832214809       13.1897719101       20.4940124974
  C         8.0207270722       13.9399852361       19.9109661543
  C         3.3903258404        7.2051118838       16.2043547768
  H         2.6880806456       10.9586386455       28.8935620240
  H         1.8252028293       10.7198667822       30.5137339832
  C         3.5658973106        9.4277746877       30.1527115452
  H        -2.2295872617       10.7837707020       26.9964447253
  H        -2.7004207777       11.0357826929       28.6705372156
  C        -3.6463010545        9.3230639576       27.7002581809
  C        -1.2378255587       15.3356062220       31.8001330856
  C        -1.3884855094       13.1551904458       32.7894991959
  H         8.7460342860       14.6701244017       20.2025627140
  H         8.4528034705       12.9545622733       20.0385194199
  C         7.7535178052       14.0428781187       18.3812414551
  H         3.4389050106        6.1445966087       16.3259396915
  C         3.5796865439        7.6512695710       14.9041895890
  H         4.0168467839        8.9231259477       29.3456983145
  H         3.2863298021        8.7277975319       30.8768170404
  C         4.6081272729       10.3414511182       30.7403790250
  H        -3.3839824467        8.6712315678       26.8557626639
  H        -3.7709907847        8.6704476889       28.5191298669
  C        -4.9465863567       10.0429023111       27.3685969563
  N        -0.9261633053       16.2921027062       30.8023269467
  C        -1.6160638487       15.9191692283       32.9463370390
  C        -1.7089259703       13.7183597618       34.0301361562
  H        -1.4192967068       12.0966422087       32.7294439626
  H         8.4211494794       13.5324279776       17.7416318518
  H         6.7379116397       13.6958337505       18.2323808623
  H         7.6659653787       15.0721026753       18.0023615517
  S         3.7176539838        9.2727023979       14.3416122398
  C         3.5190819598        6.6921841505       13.7715451954
  H         4.4639072329       11.3118840592       30.2649721285
  H         4.3145278742       10.3965396566       31.8131887083
  C         5.9963045376        9.7395463821       30.8097945018
  H        -4.9081549861       11.0600523333       27.7086321730
  H        -5.6566626928        9.5906351209       27.9995383425
  C        -5.4305645173       10.0492471760       25.9168048093
  S        -1.0077587163       17.7959671324       31.5139111805
  N        -1.5330926481       17.3210068406       32.9279915143
  C        -1.8639649647       15.1495996595       34.1287718647
  H        -1.9144609417       13.0689642364       34.8273402889
  C         4.0214525964        8.6377199327       12.6623919638
  N         3.9416281278        7.3231205120       12.6406191580
  O         3.0507234959        5.5729900335       13.8707650614
  H         6.5858144119       10.4464495400       31.3808445721
  H         6.3519174381        9.7455799717       29.7408544701
  C         6.1776333662        8.4806551262       31.6843505753
  H        -4.6536568534       10.4895498543       25.3259872795
  H        -5.4994967435        9.0109734726       25.5477560450
  C        -6.7332364342       10.8607648252       25.6642720641
  C        -2.1677498052       15.8842582805       35.3541756660
  S         4.4853121318        9.5142708737       11.2157490988
  C         3.8591785448        6.5434096542       11.3478974705
  H         6.8256079901        8.7697203347       32.5502085616
  H         5.1997095989        8.2467270488       32.0728319865
  C         6.6157738244        7.1797452132       30.9801807461
  H        -6.8707561535       10.7845661448       24.5527806323
  H        -6.6018668279       11.9290797572       25.8785449321
  C        -7.9465799929       10.2018189645       26.3558410119
  H        -2.2528385857       16.9997742200       35.2476092021
  C        -2.6664359766       15.4499821813       36.6015752625
  H         4.5768506237        6.8500112967       10.5948306578
  H         4.1888301585        5.5417902007       11.6353539636
  C         2.4364730412        6.6326837663       10.7954349166
  H         7.6315325949        7.3941225898       30.6401037452
  H         5.9519589605        7.0777509822       30.0902674357
  C         6.7707514342        6.0469496236       31.9428751593
  H        -7.6881583317        9.1761486167       26.5440620089
  H        -8.1237165499       10.8131191912       27.2726048741
  C        -9.0624333992       10.0956853568       25.3720688803
  S        -3.1759802280       13.8712404339       37.0768330186
  C        -2.9414615958       16.5568660383       37.6205316661
  H         1.7292638764        5.8544729574       11.1532945572
  H         2.0411395371        7.6331139982       10.9122090098
  H         2.4437889943        6.3393105070        9.7264956625
  H         7.2415989677        6.3646793628       32.8708824058
  H         7.3041939174        5.2479270618       31.4515614862
  H         5.8332952546        5.6659515268       32.3403379494
  H        -8.7120756124       10.2642139174       24.2602072236
  H        -9.8866607681       10.7685960384       25.5871467696
  H        -9.5144238488        9.0990038978       25.4039735209
  C        -3.6685481085       14.6201074373       38.5796249097
  N        -3.6450170683       15.9624697779       38.5995699948
  O        -2.5837727599       17.7456923545       37.5046795497
  S        -4.7893813718       13.7660747253       39.5904641043
  C        -4.0435957629       16.7390973852       39.8243700092
  H        -4.3079893588       17.6523739350       39.3469121191
  H        -4.9870746384       16.3618425543       40.2972548382
  C        -3.0000149880       16.7600585769       40.8879908793
  H        -3.3125825918       16.3307321773       41.8738918750
  H        -2.1761068664       16.3026683505       40.4179994489
  H        -2.5670241421       17.7362196385       41.0266346922
