352
i=
  H         2.7768147793        1.2411612143       13.7116878701
  C         3.5770508053        1.8215416424       13.2469414557
  H         4.4005821092        1.0537592751       13.0512434202
  C         3.0688341752        2.4173541237       11.8985183418
  C         4.0690153711        2.8184473767       14.2216739452
  C         4.1738508557        2.7076379758       10.7897696164
  H         2.3989239728        3.2599431146       12.0937399557
  H         2.3679772845        1.7106743841       11.4919782416
  H         3.2392774723        3.2311375409       14.8737270586
  H         4.6356703326        3.5884364119       13.7399262087
  H         4.8650492231        2.3746131604       14.9244255831
  C         4.5807352902        1.5021886663       10.0460319233
  H         3.6221351153        3.3658698789       10.0460484063
  H         5.0410219039        3.2073183195       11.2574008030
  C         5.1053395127        1.7923724916        8.6337420893
  H         3.8589180503        0.6948411851        9.9554615206
  H         5.2956310318        1.0416477296       10.6840631251
  C         6.3971435126        2.6037957514        8.7114699789
  H         4.3983342838        2.3942502810        8.0095220675
  H         5.2275547484        0.8308577936        8.1832234018
  C         7.7100107406        1.7251449580        9.0570486848
  H         6.5375709293        3.1201978644        7.7440671875
  H         6.1291657582        3.3294588367        9.4346215876
  C         8.9818349107        2.5847311199        9.2027710390
  H         7.8141612334        0.8966792832        8.3242214444
  H         7.5120871065        1.3341719385       10.0569826252
  C         8.6661820507        3.8812235735        9.9355052567
  C         9.4763470559        3.2937979088        7.9830810562
  C        10.1031129484        1.9574872671       10.0443541707
  C         8.9518057109        4.9969231272        9.1547801679
  C         8.2471944206        4.1385687063       11.2147944741
  C         9.5003846474        4.6722245784        7.9532902346
  C         9.9578208589        2.6872031492        6.8001719037
  H         9.6546510677        1.8067262904       11.0624263587
  H        10.2698314327        0.9538587160        9.5429232726
  C        11.3468686164        2.8301873671       10.2225292419
  S         8.6892752810        6.4810451158        9.9869227056
  C         8.1175965039        5.5156794010       11.4042957674
  H         7.9127454450        3.3895243523       11.8659276904
  C         9.9145021253        5.2799833127        6.8085318614
  H        10.0989256979        1.6525662974        6.8522964348
  C        10.3594903372        3.2808805345        5.6845483038
  H        11.2667752383        3.7951492195       10.7541608925
  H        11.7505396245        3.0489535672        9.2553936484
  C        12.4249148294        2.1566648341       11.1648334294
  C         7.7275727016        6.1963134997       12.6546273390
  C        10.3975368306        4.6210252007        5.6695644226
  H         9.9802838464        6.3455707665        6.7573624627
  C        10.8784584828        2.8591608928        4.4742717725
  H        13.3861511008        2.4570115022       10.9212156465
  H        12.4172102727        1.0657839347       10.9998193950
  C        12.1065358189        2.4514132156       12.6240332491
  C         7.6377262974        7.5737817781       12.8827915676
  C         7.4670153403        5.2677331471       13.7605295254
  C        10.8289388699        5.2966101667        4.4149437868
  C        11.0474939897        3.9865826626        3.6661769028
  S        11.2216056049        1.3776109241        3.8074661089
  H        12.3023824183        3.5370129791       12.8006628805
  H        10.9840257917        2.3164308608       12.7559384736
  C        12.7809653571        1.5222931413       13.6539899523
  N         8.0529848326        8.5650148275       11.9004354908
  C         7.4030416397        8.1455555369       14.1379845666
  C         7.3237805304        5.8747804808       14.9889706599
  H         7.3783246361        4.2393515543       13.6696492378
  C        12.2006231089        6.0430486002        4.4500833027
  C         9.7626687303        6.1314064157        3.6019300385
  C        11.6376966989        3.6091738600        2.4337586714
  C        11.6195064581        2.2207734649        2.3546702647
  H        13.7589224660        1.1975130906       13.2804893007
  H        12.1271282458        0.6957403052       13.7623179696
  C        12.8084629244        2.0908726842       15.0136680281
  S         7.9128441072       10.0151023530       12.6328045541
  N         7.3797434895        9.5559608969       14.1210413434
  C         7.1934521653        7.3907713070       15.2384710405
  H         7.1299140431        5.1680289049       15.8052263637
  H        12.1018490644        7.0122021676        4.9838564567
  H        12.3780420720        6.3542173233        3.3825431274
  C        13.3159359884        5.1684202377        5.0816938489
  H         9.3147724859        6.7417534905        4.2437216603
  H        10.2927769769        6.8841143385        3.0654762597
  C         8.6533027943        5.2524834156        3.0419095216
  H        12.0262023845        4.3547028082        1.8220564187
  C        11.9420470315        1.4624948128        1.1239527896
  H        13.5390692228        2.9337378897       14.9973882450
  H        11.8966575258        2.5816708371       15.2281690846
  C        13.3188142907        1.0553313224       15.9467817958
  C         7.0501881475        8.0276871098       16.5421697905
  H        13.1314339587        4.8065618358        6.0016446757
  H        13.4204578296        4.1818024126        4.6112830529
  C        14.7107232304        5.7277563857        5.0997785112
  H         8.3790922129        4.5466884700        3.8024548823
  H         9.0595648145        4.5954105195        2.2262218794
  C         7.3982105836        6.1152736968        2.6583838826
  C        11.8446866411        0.0776576407        0.9406188845
  C        12.2306617955        2.2134001284       -0.1087027795
  H        14.2824404324        0.5594288419       15.7392960194
  H        12.5811235451        0.3325597334       16.2487679016
  C        13.4826383499        1.8714187664       17.2569376603
  H         7.1891889654        9.1539815535       16.5599474466
  C         6.6836471238        7.5676364816       17.7952613594
  H        14.8403712955        6.5510490931        5.7582079994
  H        14.9565778745        6.0289666169        4.1097792933
  C        15.8034101432        4.7928023951        5.6947898450
  H         7.0013678000        6.6973119920        3.4217764459
  H         7.6442335804        6.7733187984        1.9253958031
  C         6.1893994847        5.3178419968        2.1245155395
  N        11.6842886326       -0.7653121035        2.0659880074
  C        12.2533678808       -0.5889981619       -0.1861320087
  C        12.5762740979        1.5310716276       -1.2633835176
  H        12.3485352950        3.2440366534       -0.1072895565
  H        12.5032912076        2.3545550292       17.4613216170
  H        14.3563662708        2.5800767274       17.2494081730
  H        13.5849425221        1.1243020384       18.0539591979
  S         6.0794340286        5.9829644239       18.2404132561
  C         6.9113049418        8.5393999213       18.9483302891
  H        15.3204550415        4.1413439080        6.4155237636
  H        16.2755244003        4.1773406385        4.8770695871
  C        16.9197016861        5.5772847057        6.3187468608
  H         5.7025691064        4.9100608134        3.0048002066
  H         6.4963489437        4.3913082243        1.5745006642
  C         5.2220332630        6.1904939368        1.2740515929
  S        11.8632607999       -2.2965404108        1.5397570047
  N        12.2881040201       -1.9578617126        0.0476663182
  C        12.6390092183        0.1269453829       -1.3965653586
  H        12.7135409619        2.0869915008       -2.2107199117
  C         6.0148462159        6.6544434221       19.9160070298
  N         6.4454429507        7.9654927720       20.0724451928
  O         7.1727117687        9.7561736379       18.8434756781
  H        17.3849861080        6.1560111775        5.5775192390
  H        16.5585306447        6.2027704055        7.0713892994
  C        18.0346989989        4.6937410801        6.8627012964
  H         5.6336846154        6.7348394995        0.4207456102
  H         4.5071641910        5.5363596656        0.8343131359
  C         4.3346089177        7.1041004190        2.1182028426
  C        12.9304437088       -0.5585318561       -2.5894660925
  S         5.4848903653        5.8546931283       21.3407004497
  C         6.4176415678        8.6879555859       21.3293031615
  H        17.5913674744        3.9339010317        7.4874192657
  H        18.4521646531        4.1005416221        6.0501440372
  C        19.0506975114        5.5595374674        7.5246633527
  H         4.8066860476        7.3147691079        3.0818394206
  H         3.3502567043        6.7052774349        2.4434451836
  C         3.9452923784        8.3992102988        1.3616538826
  H        12.7575737352       -1.6268623303       -2.4303167067
  C        13.3146410026       -0.1647976376       -3.8248155376
  H         5.6758485026        8.3759367894       22.0387491352
  H         6.1187339737        9.7310082448       21.1915070286
  C         7.8162894954        8.7848110189       21.9522688014
  H        19.3979622868        4.8591678634        8.2353861742
  H        18.5958158632        6.4533220167        8.0353619474
  C        20.1235502782        6.0175726506        6.5810641183
  H         4.8303728883        8.8707914293        0.9322632888
  H         3.1500332036        8.2228382896        0.6312264021
  C         3.3476950536        9.4898814810        2.2717413528
  S        13.8038646499        1.3927883741       -4.2428794081
  C        13.2444896471       -1.1476874130       -4.9425914066
  H         8.5614459822        8.2548303252       21.3207124130
  H         7.8985363501        8.2049987276       22.8950480855
  H         8.1324536465        9.8072336478       22.1555024321
  H        20.4207844599        5.1273257009        6.0167553549
  H        19.7384338870        6.9033187296        5.9958938769
  H        21.0456866563        6.3160154797        7.0717728523
  H         2.3962812062        9.2140165478        2.5251259123
  H         3.9130320790        9.7373891867        3.1711812118
  H         3.4127134328       10.4250506367        1.7721202905
  C        14.0196031972        0.7655695993       -5.8450571603
  N        13.6992906129       -0.5594052130       -6.0344672893
  O        12.9168570935       -2.2935070711       -4.7227556888
  S        14.4621614477        1.6942912042       -7.2775679256
  C        13.7172163553       -1.3167411417       -7.2629361942
  H        13.6266862468       -2.3492770772       -7.0228464583
  H        14.6979147099       -1.2530532990       -7.8060905566
  C        12.4189199782       -1.0654646377       -7.9939280727
  H        11.5016106142       -1.2424258947       -7.3583420914
  H        12.3391075992       -1.7992237811       -8.8501149778
  H        12.2581879747       -0.0231259639       -8.2934527568
  H        -1.7970566070       12.5823039337       17.1301701320
  C        -1.8003706075       13.6170334663       16.7608432661
  H        -0.8551291292       14.0198325382       16.8676673466
  C        -2.7217712107       14.4752018864       17.5647099259
  C        -2.3461920359       13.5925003606       15.3456611151
  C        -2.9704229315       13.8446741712       19.0121309828
  H        -2.1446234511       15.4325944946       17.7425419967
  H        -3.7185935084       14.6859145625       17.1400832671
  H        -2.8099891759       14.5383579994       15.0979790840
  H        -1.6138216483       13.3737911507       14.6240776637
  H        -3.1195435961       12.8157079726       15.3537259336
  C        -1.8128189580       12.9884848782       19.7552994553
  H        -3.8718450171       13.3535932022       19.0912757696
  H        -3.2243947930       14.7299919281       19.5536721187
  C        -2.1317049394       13.2068167142       21.2872833231
  H        -1.9264125164       11.9514149170       19.5763373318
  H        -0.7342571578       13.2099327273       19.4999558012
  C        -1.1280852172       12.6439355710       22.2775509404
  H        -3.1098150737       12.8121599276       21.5492370693
  H        -2.1691768344       14.2620887374       21.4833515625
  C         0.0053694567       13.5948750260       22.5932148934
  H        -1.7268901485       12.5257663887       23.1540567805
  H        -0.8712620427       11.5994788705       22.0560202801
  C         1.2693491696       12.9627755219       23.2968981742
  H         0.4017727887       13.8554448755       21.5622238404
  H        -0.1564124863       14.4729350994       23.2145036509
  C         1.7453857988       11.5985368312       22.6495593806
  C         0.9243014517       12.1427407366       24.5013252724
  C         2.4012671754       13.9884554039       23.5066204900
  C         1.5534208657       10.4447969266       23.3969758629
  C         2.2993011005       11.2738333306       21.3744448213
  C         1.0505589288       10.8219256047       24.6631761441
  C         0.3324726324       12.7075030512       25.6250963072
  H         2.3450828528       14.6177583585       22.5997789958
  H         2.1836121773       14.6297263266       24.4133475574
  C         3.7540279828       13.2089851400       23.8510909171
  S         1.9898329918        8.9912393009       22.5727949555
  C         2.3330181706        9.9345931063       21.1305827894
  H         2.4123436191       12.0747112239       20.6251605112
  C         0.7534226435       10.1167661216       25.7908833713
  H         0.0820522488       13.7336538751       25.5320243536
  C         0.0676621649       12.0570251542       26.8018885100
  H         4.2085645897       12.4510303589       23.1615927162
  H         3.5908302782       12.7233050464       24.8079436930
  C         5.0280960402       14.0505303314       24.3119615364
  C         2.8272654927        9.2508207496       19.8690841541
  C         0.2322760210       10.6866645038       26.9212394298
  H         0.8170425454        9.0476016240       25.6454892410
  C        -0.3082942909       12.3334337619       28.0830427231
  H         5.8644052283       13.4429749569       24.7399366540
  H         4.5659660952       14.6646518750       25.0938182464
  C         5.6073442894       14.9002690107       23.1610346364
  C         2.6497641810        7.8953630310       19.5147670806
  C         3.5719871149       10.0630520099       18.7946453825
  C        -0.0168024359        9.9373317834       28.2229993440
  C        -0.3598878746       11.2546972015       28.8879225099
  S        -0.6183674001       13.8012595529       28.8470356404
  H         6.1633432254       15.8740027831       23.4683135207
  H         4.7979940551       15.3038150043       22.5855551560
  C         6.6543610049       14.2097865711       22.2445745916
  N         1.9944613416        6.9409155244       20.2540606118
  C         3.0143399409        7.3860589011       18.2657440261
  C         3.7815561560        9.5322791574       17.4427002673
  H         3.7515945656       11.0894055559       18.9603615095
  C         1.2553295977        9.2360626936       28.8527717141
  C        -1.3126393179        9.1197810259       28.4436103945
  C        -0.6928847092       11.6298533690       30.2115497850
  C        -0.8326586152       13.0138784427       30.3596075028
  H         7.3219159401       14.9786157798       21.9613251654
  H         7.1266023234       13.3023309166       22.5834537013
  C         5.9447477019       13.8269882353       20.8673537268
  S         2.0548209449        5.4993572697       19.4995591165
  N         2.7776882834        5.9650388162       18.1494561947
  C         3.5284271900        8.1071470989       17.2028044425
  H         4.2062205436       10.1699692266       16.7210117162
  H         1.6616699864        8.5556879074       28.1248787893
  H         1.0041022416        8.5304495575       29.7074518961
  C         2.2904862308       10.1655611799       29.4726633058
  H        -1.3593863967        8.0713794467       27.9744638783
  H        -1.3616423885        8.9354234513       29.4590065296
  C        -2.6255594059        9.7966314893       28.0500916881
  H        -0.7663641838       10.8271513852       30.9403345075
  C        -1.1928359646       13.6874827076       31.6372813776
  H         5.7439125398       14.6523166042       20.2385951859
  H         5.0593525391       13.3035722801       21.1824449282
  C         6.7273806866       12.7983087227       20.0963023659
  C         3.6233906029        7.4669969410       15.8933876534
  H         2.5045792410       10.9352588281       28.7508427289
  H         1.8035520446       10.6970845401       30.3487926080
  C         3.5581441557        9.3494776160       29.8161380753
  H        -2.3899347621       10.2651985024       27.1256912320
  H        -2.9600530015       10.6390593590       28.7149415750
  C        -3.7644098047        8.7837675367       27.8289197564
  C        -1.3686108372       15.1002916534       31.7302894047
  C        -1.3858656582       12.8946068136       32.8656244962
  H         7.2154854981       12.1006814367       20.7632802083
  H         5.9811041711       12.3010842754       19.4771336322
  C         7.6315263512       13.4866545025       19.0778678642
  H         3.5232973833        6.3876374330       15.9034638309
  C         3.8857814308        7.9679009768       14.6311408632
  H         3.9413106501        8.8194226268       28.9635314450
  H         3.2241813025        8.5384703400       30.4232090734
  C         4.5935391952       10.1981508491       30.5183711258
  H        -3.4524986118        8.2917299173       26.9044888732
  H        -3.8516300037        8.1320849377       28.6614501803
  C        -5.1013089247        9.3616006416       27.5260767234
  N        -1.4372733696       16.0004303975       30.6666064008
  C        -1.5597144979       15.7083423585       32.9358790274
  C        -1.7333449884       13.5182068088       34.0486325803
  H        -1.4565787105       11.8335899170       32.7717592625
  H         8.2268191273       14.3107351094       19.5397203913
  H         8.2156948128       12.7189870942       18.5340867096
  H         7.0763548948       13.9144466228       18.3064503360
  S         4.0831377757        9.6274770905       14.2050985271
  C         4.1079576538        7.0504502627       13.4864020705
  H         4.5806611189       11.1170853337       29.9641399004
  H         4.1828916660       10.3596727074       31.4996116901
  C         5.9836330766        9.7812998437       30.7038587488
  H        -5.3123420966       10.0529047951       28.3508942536
  H        -5.8306656583        8.5170216239       27.6500397524
  C        -5.2335414724       10.0048448910       26.1447377999
  S        -1.3332873220       17.5370676065       31.2589471761
  N        -1.5047847869       17.0714897809       32.8677020337
  C        -1.7662088147       15.0138594698       34.1530453323
  H        -1.9512745473       12.9469689399       34.9632017939
  C         4.4521989230        9.0179228242       12.5522700344
  N         4.5297876473        7.6793879403       12.4060873558
  O         3.7655824972        5.8498317344       13.5567237645
  H         6.4208222426       10.4359337653       31.3709272035
  H         6.5247321927        9.8326556089       29.8200143056
  C         6.2220844642        8.3538292081       31.2537058882
  H        -4.2986392473       10.5894053179       25.9219747879
  H        -5.2260070039        9.1707477762       25.4479560709
  C        -6.5411444681       10.8267109469       25.8449070742
  C        -2.0840549414       15.7820996520       35.3016485341
  S         4.6508221040       10.0052737549       11.1657141567
  C         4.7525926425        6.9756698249       11.1417704201
  H         6.9991615551        8.3383154035       32.0170644118
  H         5.3017243410        7.9612743371       31.7090368625
  C         6.4283838954        7.3860904377       30.1030208345
  H        -6.7460294023       10.9390408209       24.7733471135
  H        -6.6210238489       11.8463648265       26.2154691717
  C        -7.6824532316       10.0807378490       26.5198028530
  H        -1.6870751740       16.8233781151       35.3419781217
  C        -2.7325108028       15.4281113603       36.4818230458
  H         5.4121804451        7.5448062021       10.4949486524
  H         5.2480067903        6.0268706314       11.3957754499
  C         3.5176622386        6.5981204240       10.4480458480
  H         7.1169867677        7.7612081735       29.3961091315
  H         5.5595755317        7.2597662593       29.5260897434
  C         6.8820581560        5.9887604842       30.5487667157
  H        -7.6282625376        8.9994708167       26.4088187574
  H        -7.7097693950       10.1035528043       27.6323916433
  C        -9.1038758061       10.4570555351       25.9856017814
  S        -3.5121147660       13.8846726959       36.8708027452
  C        -2.8438356219       16.4509488753       37.5431114645
  H         3.3823935000        5.5677216723       10.6972313902
  H         2.6254943778        7.1260840688       10.8266934278
  H         3.4733517324        6.7961446352        9.4003760611
  H         6.2443542677        5.4872623482       31.2648628365
  H         7.9130210630        6.0591360297       30.9613693915
  H         6.9746440511        5.3608431672       29.6714616908
  H        -9.1547913169       11.5446256525       26.0731234047
  H        -9.9225203364       10.0392662001       26.5627692666
  H        -9.2747275319       10.3392408832       24.9081239576
  C        -3.8854740690       14.6253034359       38.3920457226
  N        -3.5547417277       15.9109457425       38.5636504571
  O        -2.3648464013       17.5715176460       37.3944970819
  S        -4.7611982137       13.8366151535       39.6825011408
  C        -3.6329326589       16.6599186733       39.8678692272
  H        -3.4937207836       17.7475465935       39.7345255358
  H        -4.6247626503       16.5651230391       40.2667840196
  C        -2.5678074791       16.1293276295       40.8087228509
  H        -2.2311768768       15.0935878032       40.4712775968
  H        -1.6571867668       16.8587720352       40.8273073525
  H        -2.8702810140       16.0091806527       41.8324655056
