352
i=
  H         1.4153146162        1.6410668558       12.4925652801
  C         2.4799219179        1.8171314206       12.5443563281
  H         3.0161923044        0.8928438882       12.3663899741
  C         2.5885601251        2.7644038020       11.3459854728
  C         2.8827719545        2.4758568747       13.8607041853
  C         3.9185636065        2.9402687453       10.7089558047
  H         2.1461766584        3.6891483274       11.7242169279
  H         1.9862027483        2.3404670573       10.5770757031
  H         2.7098579279        1.7125269588       14.6642646846
  H         2.3133972955        3.3583344724       14.1571014977
  H         3.9521702923        2.6834794945       13.8842527217
  C         4.4893914997        1.6844529861       10.1446629435
  H         3.7474954523        3.6313204761        9.8641779635
  H         4.6059074690        3.5552722957       11.2954775297
  C         5.1361604864        1.8502343127        8.7096547416
  H         3.7637774046        0.8267031471       10.2063668076
  H         5.2483220685        1.4962771676       10.8481978045
  C         6.4131358188        2.7011442391        8.7389134682
  H         4.4798146810        2.3905960916        8.0887453693
  H         5.4106814930        0.9021914211        8.2802819258
  C         7.6417997015        1.8610784668        9.1384073351
  H         6.5715602276        3.0521752439        7.7167246856
  H         6.2215186335        3.5856715986        9.2833137370
  C         8.9246235421        2.7403761591        9.2961181041
  H         7.8790414336        1.1717515562        8.3900968215
  H         7.4165795256        1.5187066414       10.1160357159
  C         8.6040291281        4.0706016431       10.0036609336
  C         9.3701650684        3.4167204403        8.0605116311
  C        10.1442429417        2.0096625419        9.9858319528
  C         8.9042603532        5.1535698215        9.2248627385
  C         8.2938621516        4.4549489618       11.3137870981
  C         9.4179983367        4.7880904751        7.9736657797
  C         9.8518064428        2.7912916327        6.9189879350
  H         9.8188190405        1.3579855541       10.8100863831
  H        10.6276315578        1.4276771130        9.2996258473
  C        11.2951448011        2.9482670380       10.4707279869
  S         8.6370121678        6.6562435736        9.9513345377
  C         8.1777895139        5.8403390591       11.3642936220
  H         8.0748081444        3.7632086424       12.0633006494
  C         9.8106209075        5.4314055146        6.8426638931
  H         9.8019116091        1.7519746619        6.8518809711
  C        10.3706767203        3.3729142414        5.8214614914
  H        10.8153761449        3.7421477601       10.9417842350
  H        11.6931059508        3.4591074629        9.5284725130
  C        12.3347678085        2.2211986784       11.2750622132
  C         7.8585754134        6.5159276251       12.7201284985
  C        10.3407606920        4.7431339911        5.7292903730
  H         9.8533006570        6.5297421518        6.8756906424
  C        10.8528081664        2.9634901208        4.5829054795
  H        13.2377165035        2.8080818971       11.4734982127
  H        12.6721202268        1.3415363819       10.7919092511
  C        11.7757213252        1.8244123904       12.6607130900
  C         7.7899488343        7.9181627767       12.9387696508
  C         7.3416278008        5.7055325656       13.8864687879
  C        10.8577405449        5.4183222942        4.4753328912
  C        11.1991932877        4.0887667975        3.7958580105
  S        11.0600687012        1.5162026297        3.7551718190
  H        10.7938065333        1.3381747849       12.6010215610
  H        12.4001366419        1.0350086978       13.0459978605
  C        11.7020364358        2.9064446100       13.7219709259
  N         8.1224561538        8.9000365151       11.9353477348
  C         7.5010997239        8.4939574767       14.1611378450
  C         7.0205109539        6.3220696149       15.1237637371
  H         7.2231499619        4.6365858978       13.7630525731
  C        12.1124608995        6.3335968108        4.7513493386
  C         9.7378014902        6.2042462186        3.7134147846
  C        11.5369321350        3.7168989749        2.4568850117
  C        11.6360795841        2.3567863357        2.3368266918
  H        10.8500752757        3.5203984082       13.3935259793
  H        12.6236060830        3.5660981231       13.6912434059
  C        11.4473625323        2.1471324300       15.1025939887
  S         8.0592789174       10.3911474568       12.6336499196
  N         7.4865097966        9.9108424804       14.0954002805
  C         7.1095117877        7.7626687917       15.2727225051
  H         6.5061113888        5.7145882338       15.8554926777
  H        11.8189945992        7.0922637541        5.4266325455
  H        12.5835711887        6.8984051294        3.9700241829
  C        13.2238560367        5.5455588868        5.4431660082
  H         9.4265878881        6.9417399647        4.4565074934
  H        10.1781591517        6.7680911629        2.9281199134
  C         8.4761967939        5.4281690510        3.2088693928
  H        11.7021707649        4.5535524539        1.7574586365
  C        11.8516836419        1.7097394169        1.0281958667
  H        10.6660211788        2.5886690882       15.6930153293
  H        11.1791807303        1.1070928865       14.9406147697
  C        12.6162353864        2.3034622019       16.0279767890
  C         6.9834941018        8.4597689002       16.5406978876
  H        12.8406226955        4.9662794953        6.1928725358
  H        13.6236914289        4.9115387529        4.7039087181
  C        14.3671303472        6.4848878514        5.9489560495
  H         7.6207328628        5.8893317357        3.6717043926
  H         8.5202462702        4.3992810554        3.5636144771
  C         8.1471966248        5.5329762130        1.7143682919
  C        11.8248050285        0.2969751299        0.7810583933
  C        12.1567828179        2.5091600842       -0.1634378646
  H        12.8999646290        3.3473661992       15.9444303467
  H        13.5272352133        1.6745694055       15.7217652751
  C        12.2460554815        1.9051172227       17.4465562471
  H         7.2475495903        9.4903724843       16.5843226615
  C         6.6550545013        7.9716958232       17.7720871251
  H        14.0954758864        7.2394133342        6.6213184278
  H        14.7759065275        7.0024459532        5.1160901739
  C        15.4984292776        5.6968636870        6.5938267839
  H         8.3222329894        6.5281023439        1.3019655199
  H         8.9256377637        4.9594437293        1.2173645594
  C         6.7460772361        5.0461400729        1.3097461514
  N        11.5604995764       -0.6692668490        1.7644643359
  C        12.0557178071       -0.3275135167       -0.4811422670
  C        12.3378803614        1.9324965565       -1.3968155452
  H        12.2172244548        3.5733893563       -0.0536556145
  H        11.9733388118        2.7630788878       18.1149428038
  H        13.0756533361        1.3621110807       17.9346553664
  H        11.4305708469        1.2473783783       17.5236047440
  S         6.3401688550        6.3795799723       18.3174784983
  C         6.7028282409        8.9233109257       18.9198283195
  H        15.3360912884        5.8726642416        7.7244810772
  H        15.3716710095        4.6844388926        6.3227991891
  C        16.8944362762        6.0628955014        6.1612178639
  H         6.4809382219        4.0628584356        1.7917746073
  H         6.6824492700        4.8384520528        0.2303129933
  C         5.5998454161        6.0201660343        1.7539593857
  S        11.7883059732       -2.1295078968        1.1463139584
  N        11.9592182171       -1.6711292162       -0.4172611966
  C        12.3517424922        0.4279809640       -1.5868243113
  H        12.5564202727        2.5746465868       -2.3093962681
  C         6.1699785796        6.9550095210       19.9049095056
  N         6.1956869664        8.3124085772       19.9729446109
  O         6.9697766228       10.1073200329       18.8307658030
  H        16.9365674848        5.8904060174        5.1188528159
  H        17.0213689104        7.1418862068        6.2168387033
  C        17.7943604899        5.2248520027        6.9954193810
  H         4.7536097192        5.5594496296        1.1810744396
  H         5.3900657709        5.9692026066        2.8073563549
  C         5.7545505548        7.4065433203        1.2257990503
  C        12.7098926202       -0.1833861397       -2.7918069591
  S         5.5843484123        5.9644083476       21.2788743364
  C         6.1269785637        8.9882230349       21.2128259641
  H        17.1732623134        4.7389938847        7.7487571175
  H        18.1712292023        4.4222610969        6.3998448451
  C        18.9221686475        6.0200360863        7.6412193692
  H         5.9553747637        7.3859167965        0.1649673765
  H         6.4113156368        8.0606713977        1.6890095808
  C         4.5182552727        8.1868845993        1.4526328248
  H        12.4356111695       -1.1595001871       -2.8328783587
  C        13.0700310298        0.2349351171       -4.0106905354
  H         5.3886539713        8.4213449129       21.8161774507
  H         5.6961664793       10.0028551577       21.1785473167
  C         7.5252856303        8.9926710707       21.8673021248
  H        19.3896004630        5.5274158932        8.4926439173
  H        18.4961399185        7.0205871942        7.9704957647
  C        20.1525843694        6.4166590669        6.7188102484
  H         3.8765919259        8.2905522947        0.5348776662
  H         3.8739340067        7.6578309316        2.1740489186
  C         4.7676477481        9.5988068175        2.0028901262
  S        13.5901695151        1.7869695789       -4.4494037681
  C        13.3272510343       -0.8104568961       -5.0575726564
  H         7.7469153749        9.9929067646       22.4024339264
  H         8.2842717945        8.8377704146       21.0803772951
  H         7.5871027127        8.2779500119       22.6842245761
  H        20.8556723848        6.7426561299        7.5002886688
  H        20.4809540978        5.5658363345        6.1185286508
  H        19.6889829560        7.1066083912        5.9561295225
  H         5.6349378040       10.1126975538        1.4945407000
  H         3.9021344295       10.1945853062        1.9810558101
  H         4.9975641128        9.4053333926        3.0621760731
  C        13.9987673266        1.0953650360       -6.0208061100
  N        13.9862419165       -0.2684059934       -6.1001057554
  O        13.1052140852       -2.0291355873       -4.9432182254
  S        14.9790748740        1.8489321468       -7.2388427515
  C        14.2750849053       -1.1155568717       -7.3292013661
  H        14.2563932135       -2.2441058728       -7.2908457324
  H        15.2643209619       -0.8990719109       -7.6944433229
  C        13.1844253617       -0.9264484050       -8.3999244348
  H        12.5437758673       -0.0487509418       -8.1652422631
  H        12.5229299064       -1.7819750382       -8.5029808792
  H        13.6230676968       -0.6679785129       -9.3746121100
  H        -3.4611616449       14.5262252131       16.2948919590
  C        -3.3238814794       13.4668585537       16.3815478656
  H        -4.3637680224       13.1493828331       16.5479446853
  C        -2.1995792548       13.1597499828       17.4632256467
  C        -2.8285557137       13.0567486329       14.9599403512
  C        -2.8577326564       13.3125374501       18.8706906042
  H        -1.6484030104       12.2374693807       17.3083630803
  H        -1.4034419521       13.9013554252       17.4604408680
  H        -3.6140667864       13.1461657129       14.2467642702
  H        -2.0308206355       13.6173594713       14.6810275695
  H        -2.4329133291       12.0621342234       14.9530800022
  C        -1.8149492532       13.1666879154       19.9790910609
  H        -3.6916589220       12.6523082991       19.1013766567
  H        -3.3813692719       14.2920069681       18.9492334291
  C        -2.4359190526       13.2883216355       21.3282190902
  H        -1.2018840206       12.2550178461       19.8273608594
  H        -1.1623461425       14.0125437164       19.8841162718
  C        -1.4098295347       12.7529215588       22.3836418583
  H        -3.2877999754       12.6312999613       21.4342729968
  H        -2.6775922764       14.3629602522       21.5024429059
  C        -0.1332413418       13.6616416173       22.5774702673
  H        -1.9009463800       12.5814726141       23.3625510256
  H        -1.0960504500       11.8102067121       22.0192783910
  C         1.0537281633       13.0152414894       23.2822710154
  H         0.2198344780       14.1434817901       21.6454832066
  H        -0.3736428315       14.5124593802       23.2130013926
  C         1.5467584058       11.7217367934       22.6391900929
  C         0.7048237269       12.2912290989       24.5148186467
  C         2.2982421260       14.0312026422       23.5572319051
  C         1.5498768364       10.6164137231       23.5025583236
  C         1.9738744942       11.3214973667       21.3662664121
  C         0.9736631755       10.9564813699       24.6796692483
  C         0.2933859386       12.9407525065       25.6800862894
  H         2.4083298097       14.6991066305       22.6657909892
  H         2.0812024505       14.7352738854       24.4059683478
  C         3.6841141585       13.3284756599       23.7162286600
  S         2.1751509439        9.1816356963       22.8708041453
  C         2.3591236846        9.9983033334       21.3795173636
  H         2.0073390592       11.9901070376       20.5857279352
  C         0.5001274260       10.3774864114       25.8412408545
  H         0.2872665977       14.0195874744       25.6063487728
  C        -0.0798713188       12.3483193972       26.8194179947
  H         3.9494002259       12.9088310953       22.7637641960
  H         3.5550864498       12.5790129469       24.5081850692
  C         4.7791023457       14.3343341477       24.1547337335
  C         2.7290790724        9.2808352384       20.1337194648
  C         0.0259140425       11.0495422293       26.9511683024
  H         0.7914052045        9.3314226226       25.9193365621
  C        -0.4080564834       12.7923257877       28.1057668551
  H         5.3441874627       13.6807597706       24.8146405425
  H         4.3399408903       15.1222896744       24.7696264841
  C         5.5713770294       14.8679694868       22.9322335742
  C         2.7155259347        7.8538549446       19.8902881093
  C         3.2771768447       10.1288753952       19.0070873219
  C        -0.3430777678       10.3855162600       28.2374231126
  C        -0.6627653738       11.6891841215       28.9169397313
  S        -0.6409375013       14.3185015449       28.9135087197
  H         6.1423801487       15.8455786037       23.1442185530
  H         4.8398996199       15.1202934137       22.2159541468
  C         6.4263344214       13.8303179439       22.2264428635
  N         2.2196820197        6.9009297183       20.7817121070
  C         2.9001416712        7.4060166034       18.6009855633
  C         3.6765160430        9.6003197067       17.8460131043
  H         3.5057722983       11.1391477656       19.1875387900
  C         0.8582374229        9.7174037413       29.0386673932
  C        -1.5993683854        9.4847769203       27.9812800437
  C        -0.9893223092       12.1339042098       30.2549166292
  C        -1.0775586218       13.5017581539       30.3924123059
  H         7.4916122778       14.0271776450       22.2998267702
  H         6.2300001741       12.8974825911       22.7208428596
  C         6.2746217922       13.6584205249       20.7191099064
  S         2.3307373109        5.4715922159       19.9983239050
  N         2.7614188847        5.9897741023       18.4816626204
  C         3.3524799122        8.2028229693       17.4939092156
  H         4.1078207535       10.3017242913       17.1287266053
  H         0.9099313352        8.6367807841       28.8912270280
  H         0.5616066410        9.7861669985       30.0827039343
  C         2.2156483357       10.3165817972       28.8683879564
  H        -1.3279943120        8.5919059635       27.3544294688
  H        -1.9002394384        9.1156108316       28.9932255117
  C        -2.7415047038       10.1358263803       27.2609472059
  H        -1.1421479900       11.4471413246       31.0558866893
  C        -1.4904102909       14.2881754649       31.5729136356
  H         5.5475292248       14.4231517987       20.3113040755
  H         5.7271492532       12.7126268274       20.4378757879
  C         7.5401508717       13.7318347265       19.8455088505
  C         3.4273772372        7.5447022102       16.2323702294
  H         2.6329145676        9.7235071893       28.0954692741
  H         2.2958702995       11.3389112585       28.5005193093
  C         3.1259017720       10.3911092187       30.1728736223
  H        -2.5505519472       10.1695969875       26.1373409299
  H        -2.8574352233       11.1280274346       27.6696238003
  C        -4.0386831467        9.3043134892       27.4149649955
  C        -1.5984170404       15.6506706875       31.6637992063
  C        -1.8714596936       13.5296393523       32.7825344935
  H         8.0321376239       14.7442002580       20.0059103184
  H         8.3413012815       13.1326120116       20.2874046668
  C         7.1612011483       13.3196159921       18.4776838123
  H         3.2801290861        6.5005733816       16.2324994772
  C         3.8286302053        8.0512280777       14.9796591149
  H         2.8703978368        9.5337473060       30.7974999049
  H         2.9144664329       11.2677026462       30.7623465476
  C         4.5711854114       10.3621280077       29.7798965721
  H        -3.9723113735        8.3682890495       26.9036238236
  H        -4.2048551988        8.9552361816       28.4228577746
  C        -5.2279794997       10.1300125929       27.0634046962
  N        -1.1239210774       16.5460488364       30.7784526738
  C        -2.0140124472       16.3078773548       32.8116518891
  C        -2.2410390771       14.1551708598       33.9138504547
  H        -1.7986824711       12.4637993443       32.8677206189
  H         6.3799820063       12.5827296162       18.5256479828
  H         6.7009635900       14.2140589674       18.1471011413
  H         7.9605544749       12.9092823920       17.8891888151
  S         4.1236909996        9.7013413709       14.5489717230
  C         3.9931654489        7.0219337747       13.9468111129
  H         4.7689443716       10.9568775710       28.8507033691
  H         5.1441586111       10.9377838842       30.5095147889
  C         5.1407650765        8.9006035914       29.5748978362
  H        -4.8299466000       11.0870114419       26.7660344819
  H        -5.8889966320       10.3350367366       27.8391701906
  C        -5.9111116444        9.5446246809       25.7822858216
  S        -1.4584927708       18.0912207977       31.1879269637
  N        -2.0166541345       17.6838709252       32.6680312479
  C        -2.3540171350       15.6387846194       33.9854225405
  H        -2.4602392346       13.5528946229       34.7711705704
  C         4.4050347248        9.0246510519       12.9139367552
  N         4.2803281499        7.6615709476       12.7734895118
  O         3.8386265779        5.8246957997       14.0690344696
  H         6.1347868346        9.0661059449       29.1769884362
  H         4.6055715207        8.3231140840       28.8175334591
  C         5.1228285962        8.0744350534       30.8815579345
  H        -5.1697722432        9.5144307809       25.0214027225
  H        -6.2102831706        8.4765365761       26.0048586782
  C        -7.0037952261       10.4863645397       25.2009051384
  C        -2.6555117588       16.3486542291       35.2050647952
  S         4.7187834119        9.9467997516       11.4830385862
  C         4.3290813760        6.9492179152       11.4985807001
  H         5.9019513974        8.4660254314       31.5138068934
  H         4.2449147676        8.1440574773       31.4175132153
  C         5.5126736384        6.5844951337       30.7428752808
  H        -6.7636614946       10.7604642562       24.1756946623
  H        -7.1747380325       11.4201565472       25.8774317322
  C        -8.3933054534        9.7360108646       25.2230639231
  H        -2.5682176046       17.4077469741       35.1582205881
  C        -3.0656076367       15.9429591888       36.4543219535
  H         5.0482308368        7.3608140725       10.8478238884
  H         4.6751082660        5.9478952836       11.6393654006
  C         3.0009686493        6.8457358391       10.8185521551
  H         4.8105954627        6.2580926478       29.9403970669
  H         5.2231848874        5.9192728197       31.5518700068
  C         6.9863338008        6.3835612708       30.3558769558
  H        -9.0194081714       10.2384468234       24.4251448902
  H        -8.1834948673        8.7797299323       24.8667962413
  C        -9.1397597705        9.7026327890       26.5815064853
  S        -3.4337402742       14.3533280802       37.0264031745
  C        -3.1879125682       16.9767080059       37.5399208469
  H         2.5870368375        7.8164108651       10.5967723340
  H         3.0590980200        6.1887243615        9.9108127663
  H         2.2562962017        6.3724778717       11.4614353677
  H         7.4819011254        5.6421533455       30.8501985364
  H         7.6385905790        7.2599195135       30.4149890148
  H         6.9941256126        6.1626798394       29.2881548740
  H        -9.1513067764       10.7082516368       26.9957282007
  H        -8.6645743200        9.0321284886       27.3112560991
  H       -10.1596725404        9.4362378139       26.4126648823
  C        -3.7384241628       15.0656590600       38.6188840299
  N        -3.7056918065       16.4525671383       38.6613221930
  O        -2.8157540022       18.1997245882       37.4514485072
  S        -4.4290175028       14.1655217482       40.0141463138
  C        -3.9849735148       17.2451343889       39.9208115668
  H        -4.4020159667       18.2121924936       39.5908175283
  H        -4.7221583427       16.8651790070       40.5833952340
  C        -2.7531362937       17.5031173424       40.7782120730
  H        -3.1546831742       18.2348958742       41.5285751587
  H        -2.2132812372       16.6923406501       41.2845024033
  H        -2.0780648098       18.1140337037       40.2189116030
