352
i=
  H         2.7966696633        3.3021209223       12.4760953286
  C         3.4141651755        2.4445262614       12.4680191143
  H         2.8876509096        1.5623703213       12.2146890047
  C         4.5774714094        2.5642897297       11.4629978918
  C         3.7598595212        2.1592643434       13.9349415244
  C         4.0723961349        2.4006903856       10.0211696494
  H         5.3477509075        1.8902169544       11.6962671684
  H         5.0841388671        3.5217294714       11.6594528213
  H         4.2449290505        2.9821973200       14.4034747024
  H         4.5464541784        1.4009993128       14.0776553219
  H         2.8216320125        1.8890950444       14.4297009874
  C         4.7549325649        1.1708341227        9.3465958390
  H         2.9999500446        2.3305284488       10.0533619775
  H         4.2264699531        3.2272929520        9.3956435437
  C         5.6519156091        1.5099750796        8.0856264512
  H         4.1112195997        0.3241724159        9.0901965557
  H         5.3229509120        0.7170481662       10.1599465987
  C         6.6920615932        2.5037118908        8.4642657353
  H         5.0207957641        1.7885971494        7.2839459294
  H         6.0669561021        0.6136039240        7.7139095559
  C         7.9910176641        1.7435362246        8.8659591432
  H         6.9448380527        3.1175350381        7.6203867487
  H         6.4512757100        3.1539826102        9.3153561173
  C         9.1942317178        2.6492444280        9.1116042994
  H         8.1793416374        1.0685286441        8.0310572679
  H         7.7948980147        1.0368123658        9.6881450960
  C         8.7930038610        3.9226433636        9.7998047132
  C         9.6252441356        3.3145117963        7.8519582729
  C        10.3222792598        1.9496724934        9.8869072030
  C         9.0390171093        5.0283454621        8.9498565853
  C         8.2749598988        4.2665156124       11.0594808912
  C         9.5060464839        4.6470081668        7.7115875390
  C        10.1541812708        2.6955930089        6.7554790468
  H         9.9682181235        1.5097488003       10.8371104836
  H        10.5090989510        1.0081921449        9.2996266668
  C        11.6054846649        2.8552697230       10.0553705734
  S         8.5758061604        6.4956013150        9.6830547659
  C         8.0726810680        5.6329595299       11.0943325315
  H         8.1323027370        3.5181515276       11.8494204457
  C         9.9517765175        5.2744298670        6.6064369271
  H        10.2959013657        1.5524158474        6.7879549921
  C        10.5859849329        3.2785706341        5.6196541713
  H        11.4443662080        3.8231217490       10.5682251965
  H        11.9993863096        2.9741196545        9.0500042928
  C        12.5953481841        2.1038336002       10.9194895481
  C         7.6890193051        6.3237404192       12.3338277712
  C        10.4845834191        4.6001828902        5.5003988518
  H         9.7803715284        6.2889107225        6.5652819926
  C        11.0329671458        2.9029089812        4.3871525329
  H        13.5955405325        2.4213787277       10.6740831975
  H        12.6151254085        1.0426511869       10.6675737695
  C        12.2758690961        2.5403883413       12.3866695306
  C         7.8042123186        7.6947428549       12.5966696202
  C         7.3797392279        5.4678491284       13.5094699281
  C        10.9042488983        5.2939208890        4.1967307658
  C        11.1428191379        3.9706591917        3.4818870561
  S        11.2745488878        1.3631951181        3.6596435794
  H        12.0907311871        3.6092893240       12.5010113287
  H        11.3153039012        2.1267516803       12.7951421469
  C        13.3873535887        2.2139738938       13.3933935294
  N         8.1160012816        8.6858944442       11.6996902093
  C         7.6683680101        8.2161362490       13.8413606531
  C         7.3141689185        5.9984606865       14.7929629170
  H         7.1899003171        4.4227565376       13.3398441201
  C        12.1724919723        6.1292915067        4.3652732844
  C         9.7670414202        6.1037041434        3.4860924723
  C        11.4109984211        3.5097371938        2.1953489702
  C        11.5467498525        2.1488004441        2.1074153898
  H        14.1773028055        2.9167319914       13.2541001240
  H        13.7945950599        1.2006615125       13.1841513085
  C        12.8165139800        2.0963958895       14.8359997830
  S         8.1581736952       10.0818370471       12.4944232058
  N         7.7864590068        9.5929298428       13.9143363525
  C         7.3868326282        7.4603787880       15.0034245148
  H         7.2067204214        5.2801100090       15.6176734869
  H        12.1250123509        7.2042412270        4.7012010237
  H        12.5638692956        6.3294370030        3.4015528994
  C        13.3336750797        5.4565497574        5.2121558382
  H         9.6822732259        7.0063802269        4.0603310441
  H        10.1964711275        6.4732074579        2.5265335021
  C         8.4429943665        5.3540951432        3.1611291993
  H        11.6246305170        4.2986899764        1.4744808005
  C        11.8486055097        1.3298027985        0.9051264155
  H        12.0428040411        2.8341372075       14.9509339393
  H        12.2622134584        1.1158255798       14.8744708926
  C        13.7625495554        2.2498462371       15.9659654072
  C         7.3393096847        8.0854372363       16.2493741700
  H        13.1505813849        4.9951498342        6.1205494761
  H        13.7132081538        4.6168272266        4.5878780956
  C        14.5437046037        6.4510355303        5.2922031102
  H         8.0657389125        4.8096336459        4.0346697848
  H         8.5600104390        4.5212119660        2.4815845121
  C         7.3668227007        6.3096887220        2.6974684007
  C        11.9309213901       -0.1025631188        0.8286429896
  C        11.9732420036        2.0667759526       -0.3941824167
  H        14.2003310702        3.2031205648       15.7448912876
  H        14.4828007468        1.4204277086       15.8462789491
  C        13.2457133707        2.1957713318       17.4040405962
  H         7.5226423993        9.1214353144       16.1632378500
  C         6.9386625703        7.6255218995       17.4961859486
  H        14.3545742303        6.9980593066        6.2137564161
  H        14.6363041175        7.1483844156        4.4219454424
  C        15.8705718467        5.7309416211        5.4314994084
  H         7.0775079407        6.8889930941        3.5965857843
  H         7.8423019092        7.0003465903        2.0166517307
  C         6.0988578267        5.5972059775        2.1309309552
  N        11.7155670316       -0.9973382549        1.8845147460
  C        12.1302890049       -0.7139196144       -0.4414165938
  C        12.3544353223        1.4254128548       -1.5593036486
  H        11.8434263838        3.1572940853       -0.3811889403
  H        13.5907853417        1.2587452147       17.8413695668
  H        12.1316674111        2.1452600305       17.4363645990
  H        13.6515918108        2.9440090236       18.0370222950
  S         6.5215647468        5.9672873434       17.8924544577
  C         6.8666578597        8.5962697869       18.6267241645
  H        15.9569560294        4.8444913673        4.8508546849
  H        16.6066346582        6.3838505988        4.9121420428
  C        16.2245003281        5.3842366031        6.9482464645
  H         5.9992927764        4.7737463010        2.8208952260
  H         6.1548809172        5.1306714373        1.1326409278
  C         4.9120238962        6.5212229812        2.3448053022
  S        11.5805870147       -2.4919804678        1.1888870547
  N        12.0655546858       -2.1034036054       -0.3486010336
  C        12.3751838787       -0.0475315677       -1.6807765674
  H        12.4619283242        1.9978162238       -2.4580343017
  C         6.4455537909        6.5380356897       19.5221002105
  N         6.4558055081        7.8831329439       19.6802354176
  O         7.1127900504        9.7580024118       18.6138271251
  H        16.4035739808        6.3520356191        7.4432584788
  H        15.4737449422        4.8516675350        7.6038096107
  C        17.5304894400        4.5456294255        7.0298231725
  H         4.0128257178        6.0045837388        2.0661519044
  H         4.8093448232        6.9427241417        3.3440841035
  C         4.9211327477        7.7177594395        1.3725488971
  C        12.7974744901       -0.8460638049       -2.7552220702
  S         6.0517966763        5.6496779570       20.8465771086
  C         6.2957592000        8.4576309698       21.0199662930
  H        17.5079329226        3.9189679695        7.8822926976
  H        17.5414093536        3.7411558408        6.2806369530
  C        18.8155721503        5.3363663333        7.1668717273
  H         5.0237542712        7.3218923478        0.3306012517
  H         5.7820012777        8.3556533248        1.5801969469
  C         3.6594102547        8.6835184939        1.5107569830
  H        12.3053273046       -1.8268570841       -2.7217724424
  C        13.3275349872       -0.5338277656       -4.0113398852
  H         5.6963475525        7.9732651660       21.7413903318
  H         5.8885344973        9.4893122334       21.1131240761
  C         7.6684931427        8.6170624027       21.6446715001
  H        19.0890499892        5.1372105877        8.1997473915
  H        18.6510320321        6.4380102706        7.1656955651
  C        19.9015825641        5.0817183253        6.2005440511
  H         3.1414801193        8.9721663932        0.5355315357
  H         2.9672648203        8.2161276589        2.1805645429
  C         3.9462005403        9.9686899528        2.2557765454
  S        13.9877245360        0.9869607090       -4.5337268738
  C        13.3713788413       -1.6151846336       -5.0013644647
  H         7.7868132341        9.5477482496       22.1684957747
  H         8.4362592614        8.6885356496       20.8773552923
  H         7.9640093875        7.7821373142       22.3631609183
  H        20.4550365649        4.2045355483        6.3188799331
  H        19.5472326533        5.1965383344        5.1652783254
  H        20.6077968315        5.9562782219        6.4468316297
  H         4.5128688463       10.5664296987        1.6227180280
  H         3.0553703602       10.5288574107        2.6966037484
  H         4.5222156772        9.8388017152        3.1812251988
  C        14.0629236040        0.1866654313       -6.1088686874
  N        13.8208046862       -1.1446259632       -6.1432611696
  O        13.2386217418       -2.7934482008       -4.6748599244
  S        14.9170527736        0.9079332229       -7.4694622921
  C        13.8085707595       -1.9990362270       -7.3267426609
  H        13.6690664791       -3.0362276560       -7.1150303361
  H        14.7118061431       -2.0692297276       -7.9418976535
  C        12.6999229706       -1.5547881780       -8.2507833464
  H        12.4022273887       -0.5210190512       -8.2962860751
  H        11.8711447438       -2.2394683364       -8.0990229643
  H        13.0811458240       -1.7735398329       -9.2453191122
  H        -2.5380633887       15.3136376199       15.2331366158
  C        -2.6391766215       14.4137775239       15.9056353373
  H        -3.7360252613       14.1184908025       15.9544149952
  C        -2.1963582744       14.6074056542       17.3159548506
  C        -1.9342682063       13.2869096240       15.0550720307
  C        -2.7412894730       13.4886230791       18.3265199443
  H        -1.1527691097       14.7230070627       17.3393705527
  H        -2.4789427293       15.6429060782       17.6095481277
  H        -0.9258582078       13.6094331141       14.8127046338
  H        -1.9511510995       12.2880057243       15.5121486159
  H        -2.5097180911       13.1141602006       14.1745055050
  C        -1.6275085156       12.9452019140       19.3617280033
  H        -2.8006589728       12.6108555804       17.6432202675
  H        -3.7223789802       13.6654083909       18.7002382481
  C        -1.8205644393       13.4404300355       20.7962604812
  H        -1.6462250334       11.7988880021       19.4088238458
  H        -0.7094206406       13.2324939130       18.9745754619
  C        -0.8574714780       12.9560351487       21.8377275764
  H        -2.8254787030       13.2116741546       21.0312360793
  H        -1.7692587887       14.5448311370       20.7225716867
  C         0.4446155258       13.7428900710       22.1735396812
  H        -1.4061931358       12.5610087960       22.7094669087
  H        -0.4288782421       12.1260631349       21.3426685469
  C         1.5030668970       12.9160449852       22.9505590233
  H         0.8195086606       14.2825187097       21.3135434911
  H         0.1555439032       14.5603733577       22.7939218937
  C         1.8224591195       11.5691665215       22.3359574025
  C         1.0660588324       12.2690221473       24.2700340733
  C         2.8417027412       13.7541534704       23.0004930917
  C         1.6906433749       10.5024750375       23.1873978597
  C         2.1733588123       11.0951625623       21.0385782634
  C         1.0962218239       10.9203455405       24.3781795868
  C         0.5756501406       12.8280398204       25.4250189513
  H         3.1406074607       14.3846784190       22.2677552644
  H         2.7619404324       14.5279779448       23.7228464672
  C         4.0878835622       12.9372806650       23.4886991925
  S         2.2882672004        8.9668278760       22.6010424485
  C         2.5771724808        9.7390959075       21.0604359175
  H         2.2238032010       11.8632742352       20.2198571734
  C         0.7348769041       10.3476422081       25.5660501678
  H         0.4173658609       13.8740409962       25.3663848087
  C         0.1983996277       12.2501062780       26.5760145125
  H         4.1163674538       11.9620588873       23.0224784376
  H         3.8995590085       12.7411177599       24.5480440991
  C         5.4468951395       13.7002255153       23.3538657230
  C         3.0324782012        9.1183694334       19.7947239631
  C         0.2947986297       10.9340917710       26.7040901767
  H         0.7657638004        9.2938656173       25.6082478297
  C        -0.2787007246       12.6350963475       27.8626094100
  H         6.2521964657       13.1847285661       23.8272917982
  H         5.3222999590       14.5613500905       23.9755573160
  C         5.8398402516       14.0685305656       21.9583562673
  C         3.1085312812        7.7411133599       19.5974771088
  C         3.4167475340        9.9617765724       18.6045298203
  C        -0.1379137570       10.2399102990       27.9919006251
  C        -0.4120336470       11.5084899668       28.6817419909
  S        -0.6640044781       14.0698175532       28.5960007404
  H         6.7819996699       14.6067668829       22.0927665034
  H         5.0872632007       14.5527467739       21.4066557417
  C         6.3453564829       12.7364055795       21.2749451514
  N         2.7557314486        6.8321153694       20.5653096189
  C         3.4764929780        7.1921833109       18.3812690261
  C         3.7205271047        9.3328834127       17.4328494544
  H         3.6158071936       11.0364475208       18.6816967727
  C         0.9900590492        9.3966639483       28.6611759617
  C        -1.4720749399        9.5729716239       27.9810719981
  C        -0.6477791176       11.9124921456       30.0427672121
  C        -0.9224658872       13.2969471284       30.0979928777
  H         7.3276607764       12.6362149876       21.6765072781
  H         5.8901423495       11.8259725554       21.6145124474
  C         6.2517978184       12.8302444987       19.7535671759
  S         2.9120134904        5.3251603134       19.8885403438
  N         3.3970439408        5.7764144876       18.4211357775
  C         3.7837420255        7.8492425699       17.2256528603
  H         4.1094422229        9.9804557459       16.6270008241
  H         1.2794297614        8.6543048069       27.8821163946
  H         0.5231837685        8.7854355944       29.4488296186
  C         2.2316400657       10.0937944023       29.0445743211
  H        -1.4315977952        8.6307971802       27.5215482119
  H        -1.7264132213        9.2773354617       28.9927202960
  C        -2.6871170783       10.2445633866       27.2957863349
  H        -0.6284525920       11.2529946710       30.8471628977
  C        -1.2143942554       14.0592498258       31.3368459204
  H         5.5297152444       13.6352619075       19.5490079681
  H         5.7390062963       11.8982714714       19.3855046802
  C         7.7122765211       12.9459548250       19.1770010998
  C         4.0441202445        7.1817743427       15.9744248891
  H         2.7629360299       10.6134631855       28.1869809105
  H         1.9377369220       10.8794353208       29.7364830683
  C         3.1889458674        9.2714334577       29.7892957726
  H        -2.4827358325       10.4181663876       26.2923748746
  H        -2.8768233522       11.1794934973       27.8620112336
  C        -3.9531802033        9.4459837148       27.2787898059
  C        -1.3039606024       15.4939725447       31.4873484659
  C        -1.4685343498       13.3250703987       32.5860436449
  H         8.1826567502       13.9135920637       19.5268074873
  H         8.3218395478       12.0260019913       19.4087972393
  C         7.5842175609       13.0303424762       17.7283403476
  H         4.0915712317        6.1125863854       16.0644334054
  C         4.1288248651        7.6176188247       14.6672151940
  H         3.5711386861        8.5578902181       29.1168120941
  H         2.6782024140        8.6748637544       30.5584684819
  C         4.3498258032       10.0505762077       30.3737046731
  H        -3.9221435743        8.6401809377       26.4530776009
  H        -4.1879469809        8.9077274661       28.2492454880
  C        -5.1324995282       10.3467242248       27.1423589514
  N        -1.0606973147       16.4554362058       30.4714503158
  C        -1.5610149467       16.1195180469       32.6824171464
  C        -1.6444286674       13.9309698535       33.8271878946
  H        -1.5066411255       12.2465674669       32.4589766601
  H         8.4130327500       12.5253387632       17.2514366414
  H         6.7115778093       12.4403148472       17.4302877749
  H         7.3017517408       14.0194732636       17.2652489518
  S         4.4103104637        9.1831606815       14.0124467797
  C         4.1099492833        6.6292093388       13.5812149214
  H         4.6115381701       10.9279038683       29.7503727348
  H         4.0610374914       10.4639855470       31.3337385656
  C         5.6984824253        9.2465572053       30.4304217209
  H        -4.9901461213       11.2571451027       27.6901019285
  H        -6.0844394649        9.8991102998       27.3110776220
  C        -5.1836460819       10.7378526548       25.6236993050
  S        -1.2346073952       17.9002319645       31.1443075481
  N        -1.6151327966       17.4876031734       32.6121129673
  C        -1.7620894521       15.4182977370       33.9009924961
  H        -1.7642890908       13.3136176651       34.6576587668
  C         4.3915899995        8.5102554324       12.3144686308
  N         4.2894052938        7.1719671541       12.3719870290
  O         4.0385791814        5.3987655718       13.7463866454
  H         6.5015678842        9.9337956878       30.7699219594
  H         6.1113462344        9.0211575461       29.3998689466
  C         5.6298076326        7.9849031982       31.3610040460
  H        -4.3645907114       11.4257280980       25.3793633665
  H        -5.0106850641        9.7816696173       25.0566252541
  C        -6.5466634024       11.2817821646       25.2213927226
  C        -2.0357472071       16.1821752916       35.0551482739
  S         4.9161414103        9.2519744106       10.8481024853
  C         3.8986721480        6.4592982474       11.1525751702
  H         5.1082465061        8.2522270901       32.3111118608
  H         5.0130004097        7.3299932177       30.7911356556
  C         6.9852202835        7.3999935280       31.7149753514
  H        -6.3975456010       12.0593563837       24.4190874966
  H        -6.8113799773       11.7925521030       26.1390262440
  C        -7.6352754825       10.2137870766       24.8280176341
  H        -1.6695345166       17.1439411490       35.0895563862
  C        -2.4995646192       15.8754067813       36.3118892614
  H         4.7353310384        6.6356276581       10.4875673276
  H         3.8999939701        5.3824165593       11.4735189398
  C         2.4667147038        6.7111595276       10.6984164872
  H         7.2041872269        7.9221647821       32.6505034218
  H         7.7698870696        7.6842597256       31.0111115255
  C         6.8855104244        5.9061841757       31.9174994649
  H        -7.5638516907       10.0809149801       23.7551601918
  H        -7.4276524993        9.1744483343       25.2344861502
  C        -9.0453562152       10.5482847011       25.2689235215
  S        -3.3537437821       14.3818500848       36.7318461282
  C        -2.5764412268       16.9397306262       37.3708285617
  H         2.3127437920        6.2272997117        9.7655445464
  H         1.6343406475        6.2886850648       11.3526113586
  H         2.3016097334        7.7634568729       10.5596105918
  H         7.8736634229        5.4700938273       32.1404241171
  H         6.6071109906        5.4398612578       30.9648121208
  H         6.0767405047        5.5630991669       32.5833934846
  H        -9.1956954155       11.4553697179       25.8395870553
  H        -9.3887136447        9.8672929435       26.0039243631
  H        -9.7204138300       10.5495689403       24.4397684881
  C        -3.4171016867       15.0893987332       38.4067785310
  N        -3.1069600264       16.4282511664       38.4897097581
  O        -2.2181827757       18.1056406215       37.2567445944
  S        -4.2752788842       14.3488257704       39.6734284427
  C        -3.1022876994       17.3191877620       39.6657247024
  H        -2.9137701773       18.4126448424       39.4484079410
  H        -4.0819590194       17.1850305227       40.1009056424
  C        -2.0213496618       16.8712783680       40.6068020036
  H        -1.0570704000       16.7826476140       40.0553301354
  H        -1.8931117564       17.6244581991       41.3703556327
  H        -2.4366297990       15.9359266694       41.0787839160
