352
i=
  H         3.9589042653        1.4608155336       12.7813110831
  C         3.5023529034        2.4512795561       12.6472681915
  H         4.2899404699        3.2513456711       12.6218503428
  C         2.7002077175        2.5424228647       11.3424120588
  C         2.6562288177        2.8526549913       13.8769128621
  C         3.4447415488        2.8117119857       10.0488885386
  H         2.0480489980        3.4657503338       11.5102804773
  H         1.9533419062        1.7372288446       11.3317788407
  H         2.8569667103        3.9459143719       13.9475963194
  H         3.1412924839        2.2190470819       14.6603363504
  H         1.5167529390        2.6036053954       13.7568753184
  C         4.3557946194        1.5797965364        9.8433524426
  H         2.5751704887        2.9039893228        9.4849892976
  H         3.9481696434        3.6609515989       10.2534777236
  C         5.1046517016        1.6337273145        8.3866098337
  H         3.8455620584        0.7268156101        9.7807834020
  H         5.0728186111        1.5114000303       10.4623865316
  C         6.2556931266        2.5385549240        8.4236213494
  H         4.3977176637        1.9605336405        7.6580022670
  H         5.4001642329        0.6403051554        8.0670429903
  C         7.5111540396        1.9766730052        9.1235444891
  H         6.4386810782        2.8412778615        7.3971200689
  H         5.9698917969        3.4013149893        8.7310778634
  C         8.8110573617        2.8607108922        9.2625834971
  H         7.8160164593        1.0247555274        8.6651740622
  H         7.1720390040        1.8928117095       10.1885943570
  C         8.4516954601        4.1821693738        9.8972962017
  C         9.2820980435        3.5051008182        7.9463358322
  C        10.0114904229        2.2406416246       10.0703826482
  C         8.6438082033        5.2595680750        9.0416857277
  C         8.0069488526        4.5900237279       11.1246836491
  C         9.1321172565        4.8601590726        7.7564767708
  C         9.7377975090        2.9049384799        6.8382803718
  H         9.6649752017        2.1160466355       11.0812842330
  H        10.2534662231        1.2149354260        9.6616858601
  C        11.3016625501        3.0655628227       10.0050952757
  S         8.2250327605        6.7405251673        9.8028188322
  C         7.8296945742        5.9715337964       11.2387320397
  H         7.9155522677        3.8098198690       11.9456177039
  C         9.4934444721        5.4697008769        6.5679788456
  H         9.9127321279        1.7992247811        6.9074650611
  C        10.1161647085        3.4983610829        5.6848606182
  H        10.9404199498        3.9821451511       10.3339330552
  H        11.7608851760        3.1387596836        8.9948634631
  C        12.3692847341        2.5490328686       11.0435560612
  C         7.4203578610        6.6625384365       12.3863637388
  C        10.1250073020        4.8391133395        5.4668638057
  H         9.4661479225        6.5458232795        6.5989108006
  C        10.6801202154        3.1250476965        4.4136607889
  H        13.1184648014        3.4565197897       11.0674113452
  H        12.9337348888        1.7902101071       10.5200728532
  C        11.9232694080        2.2669458373       12.4304615500
  C         7.6088726335        8.0505155611       12.7014089584
  C         7.0631037386        5.8804152476       13.5974058139
  C        10.6429874365        5.6009851715        4.2483793313
  C        10.9014090059        4.1910013693        3.5917829113
  S        11.0480464985        1.6295893672        3.7054135354
  H        11.1246918323        3.0615487174       12.7271768602
  H        11.5133175131        1.2593692102       12.5395650043
  C        13.0385052683        2.4861162016       13.4353964899
  N         7.8893558632        8.9469858074       11.7981569398
  C         7.2865767650        8.6473496495       13.9890875375
  C         6.8849641171        6.4400408199       14.8889815354
  H         7.0286628506        4.7854643622       13.6117208649
  C        11.9377929436        6.4154979591        4.6584154637
  C         9.6214225958        6.4041250816        3.5787064652
  C        11.4161760826        3.7483974442        2.3635033062
  C        11.5043340753        2.4160141762        2.3103185104
  H        13.4347654835        3.5691386088       13.4976381605
  H        13.9026336520        1.7625021331       13.2782139750
  C        12.4989680722        2.1381924832       14.8369148214
  S         7.9830828916       10.4161720279       12.5300978143
  N         7.5390090381        9.9003678222       14.0688844775
  C         7.0566098818        7.9029235361       15.1519058795
  H         6.5915106225        5.7903296385       15.7011730247
  H        11.5999810512        6.9930623706        5.6754678693
  H        12.1025034741        7.0991261024        3.8023958156
  C        13.2123345587        5.6118487459        4.8617506895
  H         9.0551312652        6.9829662795        4.1756333582
  H         9.9876834618        7.0920857927        2.8984605846
  C         8.5181022353        5.5821487391        2.8432337853
  H        11.5933209734        4.5995320526        1.6416244672
  C        11.7253637546        1.6377361724        1.0464047938
  H        11.9271743323        3.0313332647       15.0958043917
  H        11.7155526309        1.3937473963       14.6870201987
  C        13.5816592720        1.8393434926       15.7892694972
  C         6.9272670788        8.5263243136       16.3956659369
  H        13.0660121865        4.8559362644        5.4050395396
  H        13.4772588399        5.0964465680        4.0407509107
  C        14.4232664472        6.4454207874        5.2786664997
  H         8.0186533246        4.9531276710        3.5368451946
  H         8.9500913254        4.9316928616        2.0781102065
  C         7.4226808404        6.4495083261        2.2196118435
  C        11.7972217807        0.2032838287        0.8472351145
  C        11.9094692500        2.3934126615       -0.2157029493
  H        14.4459748446        2.5641678487       15.6585524818
  H        14.0844343742        0.8574430682       15.6394546975
  C        13.2789281131        2.0674952505       17.2843049188
  H         7.3013857522        9.5643948110       16.3325573508
  C         6.5775637382        8.0680659781       17.6675161718
  H        14.2203243820        6.7715709910        6.2990569555
  H        14.7091000705        7.2134746534        4.6489562400
  C        15.6517314932        5.5615934395        5.3815017511
  H         7.0178370290        7.1714719457        2.9622612615
  H         7.8869638622        7.1021816755        1.4049280941
  C         6.4781167818        5.6414074583        1.4539653310
  N        11.4853794990       -0.7067807312        1.8779398556
  C        12.0245472829       -0.4450580738       -0.3578702701
  C        12.2078174813        1.7523434536       -1.3859460114
  H        11.8403848687        3.5075457522       -0.1546774499
  H        14.1696969244        2.0519017501       17.8939093098
  H        12.6525251889        1.2559202007       17.6528014052
  H        12.6780578646        3.0072338161       17.3090641712
  S         6.3701360286        6.4850366267       18.0839612894
  C         6.4560957760        9.0760147655       18.7913562697
  H        15.4240260809        4.6171581961        5.8818346751
  H        15.7644524144        5.2661393190        4.2845567068
  C        16.9114865068        6.2826487774        5.8636571092
  H         6.5827027119        4.6368829913        1.5613940731
  H         6.5869286592        5.7063383859        0.4583692046
  C         5.0891100503        6.0085082065        1.8663027405
  S        11.7119891997       -2.1725362057        1.2328686552
  N        12.0535381269       -1.7688830547       -0.2631297904
  C        12.1933011445        0.3265652583       -1.5208060743
  H        12.3305289261        2.1664412164       -2.4171094488
  C         5.8062986318        7.1275035691       19.6014586182
  N         5.9024584663        8.5085619741       19.8522038267
  O         6.7135851020       10.2530078607       18.6323578853
  H        17.4800303626        6.5213367640        5.0373076403
  H        16.5985916914        7.1395986185        6.2552418185
  C        17.6501879619        5.4612544062        6.9243178356
  H         4.2651711098        5.2730673747        1.5170171015
  H         4.8855474822        5.8423199554        2.9746871856
  C         4.6035464879        7.4103799133        1.4518206923
  C        12.5179065699       -0.3865455037       -2.7370723939
  S         5.6185087348        6.1377941826       21.0333381864
  C         5.8653238041        9.1534850836       21.1479777276
  H        17.1546190892        5.4342803933        7.9056765486
  H        17.8004327522        4.3578087196        6.7904738685
  C        19.1099196825        5.8494453608        7.0284783627
  H         4.0188765527        7.2600223830        0.6019814328
  H         5.4696050038        7.8643728604        1.0909954013
  C         3.9111146926        8.1578393685        2.5887711027
  H        12.1802691559       -1.3277405661       -2.8035116138
  C        13.1709773375       -0.0223877185       -3.8658628681
  H         5.2272253791        8.6631828294       21.9017063745
  H         5.4033137085       10.1697902524       20.9992916192
  C         7.2733671093        9.3744117021       21.8116358119
  H        19.5760895307        5.3300389576        8.0095626018
  H        19.1792100092        6.9453180214        7.5330774144
  C        19.9784884080        5.7940633188        5.8216616516
  H         2.9715152353        7.5725448421        2.9051269091
  H         4.5231457639        8.5339192912        3.5772572610
  C         3.4366854535        9.5240691048        1.9433823978
  S        13.8008436768        1.5414085552       -4.2394560074
  C        13.3350388402       -1.0317274250       -4.9876799360
  H         7.8391959052       10.2710083669       21.5270940369
  H         7.7253261080        8.5450808691       21.5897035401
  H         7.1124932725        9.4660972074       22.8892756114
  H        21.0507401608        5.4972543697        6.0070360466
  H        19.5243840712        5.0706431799        5.1200602442
  H        20.2135131514        6.7691256513        5.3451649220
  H         2.9324075810       10.1472216180        2.7341433982
  H         4.3238384402       10.0413713081        1.5187988033
  H         2.7108850481        9.1765602939        1.1833775729
  C        14.2775400652        0.8609762519       -5.7764860860
  N        14.0717265734       -0.5200378908       -5.9293805000
  O        12.8485485451       -2.2046308672       -4.9782775528
  S        15.2089171964        1.5067790878       -7.1242893682
  C        14.3498803548       -1.2797288788       -7.1094287131
  H        14.6740633476       -2.2998364448       -6.7852690554
  H        15.1210622617       -1.1066777583       -7.8722889859
  C        13.0967266676       -1.2802371413       -7.9981798404
  H        12.6276646978       -2.2194596181       -7.9243956292
  H        13.2534339683       -1.0323785268       -9.0014553215
  H        12.3607292388       -0.6775416483       -7.5354669878
  H        -3.0486814262       15.6650482461       16.2542710275
  C        -2.8788993529       14.5075791375       16.3499567959
  H        -3.8114443355       14.0019423762       16.7437339081
  C        -1.8094973449       14.2614513811       17.4729623636
  C        -2.5009334748       13.9541314244       15.0057115019
  C        -2.4018193429       13.5823842016       18.6994861459
  H        -1.1420103165       13.5644882521       17.1232305883
  H        -1.4869968881       15.1869654865       17.7927520045
  H        -3.3154497070       14.1828108153       14.2992047950
  H        -1.5480406635       14.3309808355       14.6501564069
  H        -2.4056619575       12.8845726248       14.9505095170
  C        -1.5968900084       13.7636130187       19.8491604332
  H        -2.6930828482       12.5068086674       18.3793581783
  H        -3.4027351053       14.1039617209       18.7581428867
  C        -2.2063833720       13.5558987422       21.2457321502
  H        -0.7240505383       13.0608460737       19.8098471171
  H        -1.1130145783       14.7124755119       19.8089290028
  C        -1.2208628803       12.9611146572       22.3101701427
  H        -2.9994187668       12.7176875755       21.1890259098
  H        -2.5575476213       14.5782379328       21.6191203952
  C         0.0245139561       13.8428036384       22.5089890142
  H        -1.8276271885       12.8079100330       23.2664962421
  H        -0.8055838603       11.9103863558       22.0117816182
  C         1.2163981852       13.1378991226       23.3283853367
  H         0.4293898361       14.0935330011       21.4965144649
  H        -0.3464319921       14.7244463576       23.0132859500
  C         1.6142811883       11.7785978027       22.7043758814
  C         0.6324455289       12.3401578176       24.5241937702
  C         2.3193996589       14.1208465888       23.6242767824
  C         1.3345384571       10.6347343374       23.4499404382
  C         2.1979778304       11.4936714956       21.5168491236
  C         0.6692591181       10.9671956116       24.6740254485
  C         0.1444502987       12.9471038545       25.6240847460
  H         2.3588448053       14.7713244924       22.7782007000
  H         2.1531993435       14.6612771923       24.4870521041
  C         3.6935221858       13.4400883001       24.0272086256
  S         1.7453393495        9.2375583919       22.6682986703
  C         2.1691418713       10.1458843923       21.2913712445
  H         2.5064893389       12.2416895153       20.8680637091
  C         0.1299220105       10.3062022898       25.7032487405
  H         0.1101298345       14.0651871970       25.6497073675
  C        -0.2849217458       12.2767811192       26.7315345280
  H         3.8699525122       12.5288770511       23.4519743977
  H         3.5803051594       13.0978580342       24.9344223120
  C         4.9438838468       14.3303448126       24.0099516127
  C         2.5546477659        9.5645236029       19.9983048299
  C        -0.3634426561       10.8998219661       26.8139496333
  H         0.2014430219        9.1883453134       25.6882834818
  C        -0.7881448454       12.6231113496       28.0286652528
  H         5.7998242512       14.0272917524       24.6200736764
  H         4.8071276979       15.4862406584       24.2950184576
  C         5.5611282897       14.3820660202       22.6202705244
  C         2.5857087632        8.1961476111       19.6837318635
  C         2.9066430264       10.3699760858       18.8602889109
  C        -0.7960168300       10.1300656307       28.0946483463
  C        -1.1197640817       11.4941635285       28.7682095468
  S        -1.0558914084       14.0651637090       28.7952561365
  H         6.1307035021       15.3220845357       22.5411727260
  H         4.8011450664       14.6090476164       21.8497412313
  C         6.2854552882       13.1475943359       22.0740675677
  N         2.1752943287        7.3371170001       20.6530999765
  C         2.9554810895        7.6163562532       18.4786721494
  C         3.2306717474        9.8562324940       17.5790535362
  H         2.7159152091       11.4763615460       18.9544253560
  C         0.3990481936        9.3377255424       28.7150822271
  C        -2.1543226811        9.2889029124       27.8804472666
  C        -1.4896283514       11.8808160855       30.0225885466
  C        -1.4163441751       13.2271717067       30.2804768972
  H         6.9441012508       12.8021523221       22.9169915333
  H         5.5388885593       12.2742419352       21.8927158666
  C         6.9910020538       13.5161163765       20.7330127609
  S         2.3116689778        5.8276355904       19.9664678867
  N         2.8136126100        6.2430339815       18.4818818054
  C         3.2616320678        8.4273082537       17.3992568169
  H         3.4643313872       10.3740888053       16.7054375750
  H         0.8945942883        8.4603619763       28.1399275245
  H         0.0318451359        8.6289428843       29.5483226123
  C         1.4647837073       10.1933018234       29.3203983073
  H        -1.9656687626        8.4604924370       27.0926429450
  H        -2.3588845568        8.8008033755       28.9110132743
  C        -3.3494300101       10.1072438138       27.5638368335
  H        -1.7343894148       11.1191834563       30.7749741709
  C        -1.8395433996       13.8952016567       31.4876664967
  H         7.8251149359       12.7618690586       20.6097925525
  H         7.2559476476       14.5437394968       20.8097137762
  C         6.1521601663       13.4306343628       19.4170491415
  C         3.4458466646        7.8036382338       16.0782248952
  H         1.8310607711       10.8636426542       28.5557475044
  H         1.0313295612       10.9080776581       30.0537483341
  C         2.5496247468        9.3637506274       29.9927531155
  H        -3.1142609896       10.8873840334       26.8895657403
  H        -3.6673843465       10.6492185008       28.4686858985
  C        -4.5435781409        9.2699979330       27.0778610980
  C        -1.8261168630       15.2757973847       31.7217907779
  C        -2.1276930052       13.0857905730       32.7386891083
  H         5.7395238213       12.3711332330       19.2816353218
  H         5.1700769994       14.0709423234       19.3992580347
  C         6.9863456852       13.7139724834       18.1543997348
  H         3.3095574103        6.7198984154       15.9854272501
  C         3.7541848563        8.2970761639       14.8324945335
  H         3.2081563475        8.8366443250       29.1975529268
  H         2.3434705677        8.4789120323       30.7084028173
  C         3.5221002822       10.2836467110       30.7725301219
  H        -4.2469892551        8.7146897854       26.2192138993
  H        -5.0823560896        8.6887091437       27.7948388868
  C        -5.5521711852       10.2161011586       26.5079533438
  N        -1.5954666458       16.1229402983       30.7472777576
  C        -2.0396696363       15.9640955712       32.9566531240
  C        -2.4054450174       13.7151868294       33.9374814440
  H        -2.1699411968       11.9181622923       32.6832793343
  H         6.3781377481       14.0041365249       17.1941235868
  H         7.5761625887       14.5424576296       18.3364346919
  H         7.5200282641       12.8074819127       17.9191166525
  S         4.0315786145        9.9178342950       14.3777599614
  C         3.8056083057        7.4006118954       13.6163907427
  H         3.4603313056       11.2916698080       30.3266599496
  H         2.9781242210       10.3155097050       31.7558277973
  C         4.8929864549        9.7065198797       30.9348012303
  H        -5.1639712931       10.7746604022       25.5822454328
  H        -5.7532079912       11.0436350146       27.2843938419
  C        -6.9741354888        9.6578779726       26.1773741689
  S        -1.6503551111       17.6619603292       31.3562717449
  N        -2.0704579278       17.2630641638       32.9063385922
  C        -2.4153431317       15.2157648345       34.0917807718
  H        -2.7165557948       13.2291427439       34.8566428672
  C         4.1745348770        9.3243111152       12.7287485130
  N         4.2767797322        8.0077357261       12.4991605178
  O         3.7332795432        6.1945754678       13.6439298543
  H         5.5939672545       10.4060510648       31.5066093702
  H         5.4522002765        9.5741279590       29.9698777475
  C         4.9866459412        8.3559080571       31.8008834011
  H        -6.9099456882        8.8097500430       25.5981019254
  H        -7.4574998564        9.3662027573       27.0956521059
  C        -7.9523747595       10.4785048599       25.3546572976
  C        -2.6469611627       15.9048604244       35.3564392669
  S         4.5254695228       10.4457028578       11.3243790674
  C         4.3233697260        7.4467530739       11.2239527357
  H         5.6757366096        8.4584865629       32.3740046711
  H         4.1128090370        8.3059308122       32.2596182210
  C         5.1117709439        7.1879257261       30.9843663785
  H        -7.4651978869       10.5667371882       24.2948881397
  H        -8.1011912559       11.5057490212       25.7464362560
  C        -9.2664320049        9.7574902746       25.2487657306
  H        -2.2559628416       16.9345582833       35.3642555358
  C        -3.1638644424       15.5321762377       36.5266918396
  H         4.8826521387        7.9973024293       10.4693862153
  H         4.7644362766        6.4646715349       11.4187376211
  C         2.9227930623        7.3034377340       10.5481715637
  H         6.0939346604        7.2491663150       30.4327534593
  H         4.3633644555        6.9960145387       30.2236146173
  C         5.1225131944        5.9198023781       31.9545389020
  H        -9.7419160152        9.9321006410       24.3705154398
  H        -9.0900978911        8.6291165536       25.3554642954
  C       -10.1020248402       10.1722305627       26.5213634736
  S        -3.7829234114       14.0168362344       37.0071699913
  C        -3.2966692557       16.6149536923       37.5895894896
  H         2.1172957717        7.9431314651       10.9075936985
  H         2.9799665556        7.5584687066        9.5615158588
  H         2.6679678226        6.3301700840       10.4291387586
  H         5.3157701518        5.0378729758       31.3320072742
  H         4.1129229561        5.7648329989       32.3597155371
  H         5.8652511434        5.9612709801       32.6658647038
  H        -9.4714211359       10.3608611072       27.4180182260
  H       -10.6995650446        9.3494209196       26.7759063739
  H       -10.7449723320       11.0152866610       26.4757447283
  C        -4.1317791665       14.7730212284       38.5086657698
  N        -3.9164808615       16.1512895461       38.5862192723
  O        -2.8403366261       17.6971206061       37.5863144617
  S        -4.7538299216       14.0135483965       40.0225982879
  C        -4.2153395686       16.9059080114       39.7846974229
  H        -4.5090591937       17.9173862132       39.2951009655
  H        -5.1478641813       16.6077751483       40.3404723261
  C        -3.0196136909       16.9628281800       40.7510799563
  H        -3.2350086363       16.3289427579       41.5274355664
  H        -2.0479505284       16.7261625969       40.3329889405
  H        -2.9104468011       17.8859112911       41.0874497430
