352
i=
  H         4.8791820333        2.1454511916       12.6472511053
  C         4.0354182550        2.8793906228       12.7243225424
  H         4.6564350280        3.8100918762       12.7990390700
  C         3.1036593367        2.8254382461       11.4377907574
  C         3.2595575942        2.7029832940       14.0163697274
  C         3.8356123336        3.0205863844       10.1216102515
  H         2.3693835521        3.5501128548       11.6458731614
  H         2.5396097925        1.9003708662       11.4839619656
  H         2.5313271984        1.9129454761       13.8801166629
  H         2.8039876104        3.6567498544       14.4572322063
  H         3.9646083111        2.3751570386       14.8061662271
  C         4.5766190592        1.7364455674        9.8511273773
  H         3.1656656197        3.1861833492        9.3236639250
  H         4.4442048234        3.9206856847       10.1334294552
  C         5.2856581854        1.7731231773        8.5070498613
  H         3.8345554817        0.9933325556        9.8051703553
  H         5.3651008411        1.5559495500       10.5607584364
  C         6.5075436740        2.6560840654        8.4989946279
  H         4.5622541358        2.1058108724        7.7906566467
  H         5.5475952491        0.7794522836        8.0998703336
  C         7.7411677089        1.8181962112        8.7838280527
  H         6.5627721855        3.1481764111        7.5384964640
  H         6.4253481866        3.4651721741        9.3013591448
  C         9.0733421211        2.6288316299        8.8088863406
  H         7.6861272902        1.1710811522        7.8192155776
  H         7.6779240686        1.0452271115        9.6576403296
  C         8.8089774691        3.9434858827        9.5651150315
  C         9.4402839883        3.3988480252        7.6093110406
  C        10.2890061143        1.9526999790        9.5078523656
  C         8.9238095016        5.0671106520        8.8054966058
  C         8.4101563936        4.2976255266       10.9102698769
  C         9.4871935812        4.7536653332        7.5777428456
  C         9.7017744430        2.7609397055        6.4151181932
  H         9.8564605944        1.5518160568       10.4052372757
  H        10.6838416601        1.0152840261        9.0624721457
  C        11.4974740072        2.8774005594        9.9546216609
  S         8.5044630345        6.5346081284        9.5923818506
  C         8.1462089912        5.5928183115       11.0173347762
  H         8.2856035010        3.4945258577       11.6222554217
  C         9.8075380811        5.4405986867        6.4518562506
  H         9.4223036916        1.7438850548        6.3753388688
  C        10.1377740410        3.4241727071        5.2747482357
  H        11.0995745978        3.7384493932       10.4661108746
  H        11.9478434040        3.3218399441        9.0379370958
  C        12.5110498282        2.3343900293       11.0166226731
  C         7.7380323152        6.3239829715       12.2472476618
  C        10.2545163343        4.7598716621        5.2426903108
  H         9.6404497243        6.5448772085        6.4227375413
  C        10.6517600310        3.0064802768        4.0122222541
  H        13.3559597089        3.0249427852       11.0511777215
  H        12.9779361765        1.4386405904       10.5965831368
  C        11.8715817735        2.2973051248       12.3789900569
  C         7.5671572492        7.7361962433       12.5084004924
  C         7.3567174905        5.4347861632       13.3691534222
  C        10.7948360868        5.4278677802        4.0092387221
  C        10.9702175826        4.1099344017        3.2457384213
  S        11.0347681892        1.4442649869        3.2353155211
  H        11.3282575218        3.1869954003       12.5242506143
  H        11.1918815657        1.4103061166       12.2602767639
  C        12.8487914806        2.1170169581       13.4759776415
  N         7.8049390184        8.7139262320       11.5919012385
  C         7.4237616993        8.2334268088       13.7908494775
  C         7.0195994369        6.0246117852       14.6045370548
  H         7.1467858664        4.3808552926       13.2897764762
  C        12.1065654366        6.1879461521        4.2284394040
  C         9.7100326307        6.3223881096        3.3773247122
  C        11.4394766146        3.7135838311        1.9822675806
  C        11.4996546517        2.3448977184        1.7940556735
  H        13.5563921105        2.9207219499       13.4292416844
  H        13.4890467508        1.2539212280       13.3819738801
  C        12.1579241589        1.9419593616       14.8184811616
  S         7.8741703083       10.1746996201       12.3974534792
  N         7.4910590342        9.6069537112       13.9102534094
  C         7.1728095755        7.4669261941       14.9115778266
  H         6.6385230425        5.4452127911       15.3890884913
  H        11.9907866220        6.9873746883        4.8941584110
  H        12.4756664385        6.5154929628        3.2766255772
  C        13.1634583295        5.2934423719        4.8923816833
  H         9.5665238813        7.2015693967        4.0027640744
  H        10.0742476079        6.7599499355        2.4581963248
  C         8.3373238842        5.5862429428        3.2973662325
  H        11.6501955125        4.4191229514        1.2486989565
  C        11.8209393572        1.6622179732        0.5440048022
  H        11.5796636924        2.8298095004       15.0748550668
  H        11.5400687804        1.0824292869       14.7192494427
  C        13.2561240713        1.5691335166       15.7817855810
  C         6.9547820268        8.1801220214       16.1719946613
  H        12.7774128023        5.1082128284        5.9258097162
  H        13.2732535920        4.3812841403        4.3603107758
  C        14.4578318205        6.0844555723        4.9193281620
  H         7.9332172506        5.3125759617        4.2390214078
  H         8.4532652788        4.6441492557        2.7415761282
  C         7.3374044693        6.4296842593        2.5488207402
  C        11.7020457765        0.2477829206        0.4235358846
  C        11.9956026779        2.3892288341       -0.7466987634
  H        14.3051426659        1.9528661952       15.6328305701
  H        13.2343028005        0.4920823193       15.6459895496
  C        12.7673782113        1.8147070541       17.2145150230
  H         7.2107140472        9.1830120468       16.1903523113
  C         6.5610109343        7.7804543360       17.4516031846
  H        14.3200276092        7.0267503792        5.3968415193
  H        14.8828648949        6.2301924391        3.9420720546
  C        15.4510431470        5.4214099320        5.7933789007
  H         7.2009067402        7.3721067127        3.0651568583
  H         7.7120248265        6.5591933277        1.5655424433
  C         5.9588160227        5.8212868735        2.4171003812
  N        11.3705757199       -0.7340664609        1.4037326315
  C        12.0013843149       -0.4554238627       -0.7633795461
  C        12.1137898165        1.6829957531       -1.9738663150
  H        11.9294154863        3.4505611001       -0.7855736950
  H        12.4549860563        2.7840131617       17.3955606337
  H        13.6271022972        1.7912276594       17.8585707310
  H        12.0125370370        1.0750517030       17.5005358804
  S         6.1299032451        6.1949115772       17.8582434095
  C         6.5066559468        8.7918464580       18.5175596476
  H        15.2092809204        5.6059068869        6.8311404168
  H        15.3379010983        4.3509509738        5.7892754617
  C        16.8268776689        5.8251110239        5.4656164809
  H         5.6947504774        5.4621796387        3.4347022478
  H         6.0536397624        4.9784148352        1.7135639328
  C         4.9232647071        6.7850517046        1.7298028984
  S        11.3435775032       -2.2370200038        0.8360721736
  N        12.1302646369       -1.8187633991       -0.5643803146
  C        12.3013762321        0.2083904200       -2.0014150872
  H        12.2066342207        2.2830843018       -2.8882255994
  C         6.0027101583        6.8306963416       19.5143754232
  N         6.0058684984        8.2123399475       19.6454141700
  O         6.8099951771        9.9452031871       18.2933972208
  H        17.1641730323        5.0190420939        4.7917062172
  H        16.8950199584        6.8165587620        5.0896460262
  C        17.5936136760        5.8093290041        6.7332981624
  H         5.3131443466        6.8991213587        0.7219675359
  H         3.9314647714        6.4057307747        1.7335297621
  C         4.7773189572        8.2210866273        2.3857349664
  C        12.6706241492       -0.5494564065       -3.1276705042
  S         5.5228449232        5.9832348153       20.9827428896
  C         5.6919214982        8.9862284561       20.8236503246
  H        17.0924301590        6.4790539308        7.5252001174
  H        17.6173602673        4.7957631582        7.1616175158
  C        19.0776563420        6.2013586661        6.8230938368
  H         5.6236622968        8.8156411068        1.9445921820
  H         4.8064479948        8.1323154901        3.4845780715
  C         3.5428792756        8.9644996373        1.9717141430
  H        12.5473253172       -1.5599874886       -3.1098099944
  C        13.0652786781       -0.1917090784       -4.4003498933
  H         4.8869137985        8.5161370090       21.3396693442
  H         5.2718445003        9.9353044155       20.4083223574
  C         6.9039274997        9.1435358358       21.7450922478
  H        19.4905021732        5.9555070509        7.7453937908
  H        19.0890124316        7.2982672027        6.6792338824
  C        19.9399526015        5.5386183535        5.7326639293
  H         2.6678748604        8.3783353935        2.0449355522
  H         3.4145839812        9.8424378882        2.5992461973
  C         3.6191906664        9.2814505441        0.5136089503
  S        13.5581304490        1.3543723057       -4.9703995378
  C        13.0430331779       -1.2943086330       -5.4405786325
  H         7.6122347411        8.3042218636       21.4467798728
  H         6.6488739798        8.9546595235       22.7151090611
  H         7.5899895459       10.0057401969       21.6166213484
  H        20.9112186015        5.2410934246        6.1097290005
  H        19.4150771033        4.5918673062        5.3628351207
  H        20.1332733674        6.2184686826        4.9087432017
  H         2.6764022871        9.7735736904        0.3110726299
  H         4.3979729964        9.9976534947        0.1245788404
  H         3.5173410412        8.3993428790       -0.1400203139
  C        13.8731222889        0.5535906800       -6.5157198244
  N        13.6120134836       -0.8033811025       -6.5540254198
  O        12.5941662541       -2.3817282469       -5.2271277862
  S        14.5399186086        1.2877082694       -7.9605150297
  C        13.7578193088       -1.6451173663       -7.7466110204
  H        14.1214557035       -2.6270069643       -7.4133106528
  H        14.5879243967       -1.4742471765       -8.4421494647
  C        12.4494731529       -1.6976350571       -8.5816588583
  H        11.4939687456       -1.6838850139       -8.0233383840
  H        12.3129657597       -2.5372472893       -9.2947340214
  H        12.3831272725       -0.7732367889       -9.2158443034
  H        -3.6379495172       13.0911414352       16.5248088039
  C        -2.7029180876       13.5824769116       16.6277008276
  H        -1.8879073428       12.9281726442       16.8843979496
  C        -2.8064372100       14.6130409064       17.7830666648
  C        -2.3267517002       14.2561266831       15.3774806624
  C        -3.2459681142       13.8594834042       19.0779965044
  H        -1.8159721431       15.0854546035       17.9255548872
  H        -3.5402505896       15.4173508928       17.6182979702
  H        -1.4226392889       14.7911517682       15.4399838016
  H        -2.1583658660       13.5859339468       14.5294574964
  H        -3.0603431405       15.0074965623       15.0746364007
  C        -2.1624427181       13.7232608850       20.1025345312
  H        -3.5835229033       12.8343457912       18.9016454358
  H        -4.0928895005       14.3362077684       19.4778038728
  C        -2.6300219905       13.4024817348       21.5455883163
  H        -1.5167354025       12.8621553352       19.8789904294
  H        -1.6182843954       14.6111125416       20.0770478725
  C        -1.6822094568       12.6802621064       22.3814495451
  H        -3.5889872610       12.9286264684       21.4376255796
  H        -2.8563073037       14.3929097907       22.0132037368
  C        -0.3777208213       13.5355903080       22.4610687244
  H        -2.0415026019       12.5772126323       23.3681014653
  H        -1.6519368301       11.7111471297       22.0486797921
  C         0.7792150358       12.8904075689       23.2409784117
  H         0.0918798532       13.6348711619       21.4110866714
  H        -0.5979260875       14.4478758763       22.8989822512
  C         1.2141429957       11.5341179061       22.6033173351
  C         0.2979965650       12.1377132579       24.4911739320
  C         1.9141967539       13.9473972103       23.5109340468
  C         0.9332201910       10.4291940195       23.3801878248
  C         1.7959893372       11.1953969095       21.3610380273
  C         0.3474188920       10.8120825049       24.5763191158
  C        -0.1247287706       12.6915842201       25.6304153901
  H         2.1757801278       14.4024096659       22.5783726123
  H         1.6495874881       14.6856184317       24.2080955389
  C         3.1889369168       13.1766844245       24.0138560420
  S         1.4482075570        8.9276307046       22.6540728837
  C         1.9895877989        9.8592605360       21.2415644417
  H         1.9563537745       12.0061247792       20.6892587338
  C        -0.0899657303       10.1766222253       25.7713505896
  H        -0.1680452035       13.7072967361       25.6322219183
  C        -0.5923668638       12.1329785406       26.7806112733
  H         3.6525208881       12.5198896804       23.2857813369
  H         2.9876729568       12.5857177766       24.9908458637
  C         4.2619496686       14.2867377290       24.2943009011
  C         2.4153269110        9.2680559470       19.9445290336
  C        -0.5127605188       10.8155503928       26.8923788223
  H        -0.0712946200        9.0288610256       25.7514014447
  C        -1.0566175734       12.4985422169       28.0268293117
  H         4.9530572183       13.8561001401       25.0122965901
  H         3.8634929953       15.1203225053       24.8060572024
  C         4.9841355796       14.7248847619       22.9842539755
  C         2.4898878017        7.8949826285       19.6536466455
  C         2.8047796820       10.1826865876       18.7975836902
  C        -0.8338001796       10.1458342711       28.1471894599
  C        -1.0305277406       11.4027668746       28.9080552171
  S        -1.2560625239       13.9565722412       28.7639780356
  H         5.5262557945       15.5957469540       23.1719922241
  H         4.2700167034       15.0734978415       22.1878297711
  C         5.7444695683       13.5985388892       22.3205067255
  N         2.0581208180        6.9311348238       20.5673386187
  C         2.9448372253        7.4173882109       18.4272085303
  C         3.1451118444        9.7392497619       17.5792159398
  H         3.2382902408       11.1939876895       19.0025806367
  C         0.4003040833        9.2666096160       28.7612230046
  C        -2.1479216999        9.2868997593       27.9786185191
  C        -1.1661831140       11.8234910167       30.2457840094
  C        -1.3859509410       13.1681466246       30.3636320382
  H         6.7873879607       13.8428251176       22.1822863237
  H         5.8241805612       12.8079658628       23.0219750371
  C         5.1153529667       13.0857136727       21.0203737693
  S         2.3308790827        5.4962977606       19.8815200098
  N         2.7886986754        6.0175893434       18.3986495693
  C         3.2915160007        8.2289244440       17.3356571610
  H         3.4493909976       10.3867519217       16.8421477466
  H         0.5722105319        8.4904384518       28.0389997936
  H         0.2204196292        8.6952503839       29.6591323655
  C         1.7095933575       10.0181036743       28.8381579789
  H        -1.9025096683        8.4326106717       27.2641034100
  H        -2.3965960397        8.8760720527       28.9151010377
  C        -3.3557679333        9.9921249575       27.3925381538
  H        -1.1168094707       11.1873358278       31.0908586136
  C        -1.6809128444       13.9819317735       31.5899085304
  H         4.0292366853       13.1850970241       21.1529755345
  H         5.3219499323       12.0554146830       21.0034862493
  C         5.6475796730       13.7616727216       19.7315195171
  C         3.5549366847        7.6738246083       16.0675075550
  H         1.9496522621       10.4656915176       27.9113187325
  H         1.4892323423       10.9007089709       29.4584919563
  C         2.7972716272        9.0560636610       29.3211660903
  H        -2.9435368244       10.3050447800       26.4319989901
  H        -3.6222196668       10.8810443494       27.9775844843
  C        -4.5986023806        9.1261999120       27.2397502730
  C        -1.7284375344       15.4300305363       31.6620800619
  C        -1.8414248800       13.2877760447       32.9243802145
  H         5.0472481210       13.4410798110       18.9152585287
  H         5.5048731499       14.8172862958       19.8800881066
  C         7.0869917370       13.5422448101       19.5117133867
  H         3.5448520643        6.5968268343       15.9983828541
  C         3.7883474085        8.2431512698       14.8392519049
  H         2.9877869603        8.3309166074       28.4624315019
  H         2.3698735615        8.3731113716       30.0349144083
  C         4.0418909584        9.7309510757       29.7700730540
  H        -4.2667388733        8.4820369843       26.3998061318
  H        -4.6647969308        8.5537644142       28.1978287726
  C        -5.8578178542        9.8388321874       26.8809280237
  N        -1.2972989480       16.2874706481       30.6703371578
  C        -2.1119939102       16.1252072259       32.7759463871
  C        -2.1328427250       13.9861313794       34.0843998919
  H        -1.8692209020       12.2584429184       33.0195813523
  H         7.0782663971       13.8230236885       18.4773620850
  H         7.7888368084       14.0657189000       20.1427858281
  H         7.2450399444       12.4585324077       19.4966991206
  S         4.0414271263        9.8903328183       14.4348604068
  C         3.8381012187        7.2918610442       13.7146042579
  H         4.2069217576       10.5708034074       29.0452400052
  H         3.7172155436       10.2181703325       30.6815490357
  C         5.1528265149        8.7036088784       29.9386340780
  H        -5.7801132708       10.8265758164       27.3811784089
  H        -6.6613634077        9.3542020474       27.3869826464
  C        -6.1890252189        9.9499782240       25.4009252924
  S        -1.6448661569       17.8335576500       31.0410137710
  N        -2.2234480738       17.5277797889       32.5408140434
  C        -2.3642679468       15.4877844381       34.0304220802
  H        -2.2624979557       13.3698359725       34.9328107371
  C         4.2568989439        9.3030795583       12.8175540973
  N         4.2035125985        7.9101317991       12.6085826735
  O         3.6444768253        6.0631585478       13.8026719877
  H         6.0762499323        9.2138304301       30.1433596373
  H         5.2790568565        8.1024955826       29.0705293907
  C         4.9700163828        7.8580389360       31.1515894253
  H        -5.2816176267       10.3667733618       24.9247586173
  H        -6.4649205221        9.0511583498       24.8865589580
  C        -7.3562671410       10.8346898435       25.1314570193
  C        -2.6048964499       16.3284566274       35.1794727818
  S         4.6623563602       10.4091833698       11.4842776535
  C         4.0994199330        7.2507184514       11.3284428543
  H         5.6350371001        8.1424040834       32.0289709547
  H         3.9541876099        8.1139028979       31.5098570994
  C         5.1794089633        6.3080676587       31.0559282098
  H        -7.2317970832       11.4178149136       24.2121271985
  H        -7.4206836835       11.5129192898       26.0089524604
  C        -8.6798395794       10.0019444063       24.9814496926
  H        -2.4064888303       17.3096484377       35.0980273493
  C        -3.1939267214       16.0969118537       36.3999480360
  H         4.5785217429        7.8556431053       10.6601701313
  H         4.6264069138        6.3161058271       11.4319217107
  C         2.7013574189        7.0874091231       10.8987511120
  H         4.7206058971        5.9126509373       30.2152947685
  H         4.6499475989        5.8526875755       31.8005908992
  C         6.7227236143        5.9780544101       31.1244489019
  H        -9.3296293330       10.5401264702       24.3580552733
  H        -8.4471591154        9.0576119260       24.5029117148
  C        -9.4849897229        9.7249236646       26.2800907182
  S        -3.6876870219       14.6622579818       36.9356588556
  C        -3.2656690606       17.2767081204       37.3543292344
  H         1.8945950997        7.3074865796       11.6724065693
  H         2.4133674858        7.7712327604       10.1541397318
  H         2.5355135995        6.1081923349       10.4277716109
  H         7.1246354611        6.1261228482       32.1577923661
  H         7.2914124379        6.5375385928       30.3559749189
  H         6.8572951254        4.9414269879       30.8603489982
  H        -9.1832171163        8.8365219107       26.7983782885
  H       -10.5217494892        9.7492402635       26.0735635105
  H        -9.2498076166       10.6123531856       26.8489663845
  C        -4.0474366000       15.5511153113       38.4039418600
  N        -3.8695644535       16.8704788103       38.4761296741
  O        -2.8287091799       18.4010217900       37.1594018930
  S        -4.4939755624       14.6455276806       39.8347965832
  C        -3.8024940798       17.6025208481       39.7156586328
  H        -3.8720110112       18.6001048760       39.5637060233
  H        -4.6028414009       17.2687281966       40.3545742259
  C        -2.4845607780       17.3317176334       40.4569723003
  H        -2.5399378333       17.4835736471       41.5393025698
  H        -2.2286572056       16.3580858321       40.1878013490
  H        -1.7102154167       18.0129178655       40.2012465722
