352
i=
  H         3.8651841119        0.7272469137       12.4319774533
  C         3.5187252580        1.7435836680       12.3946076493
  H         4.3148791407        2.4147731868       12.3903999492
  C         2.8477065583        2.0838459734       11.0166403484
  C         2.5961166300        2.0618434122       13.5294287456
  C         3.6756554980        2.1129316856        9.8170752885
  H         2.2866537767        2.9943183051       11.1534779906
  H         2.0474917334        1.2859185293       10.7787699374
  H         2.3353949550        3.1095463297       13.4146081614
  H         3.1348693436        1.8122104894       14.4382005930
  H         1.6143668809        1.4917069143       13.5015570268
  C         4.4182380368        0.8123830196        9.5358601381
  H         3.0592578848        2.3252011036        8.8956894049
  H         4.3368689385        2.9378628286        9.8641986851
  C         5.0866080252        0.9889361277        8.1736394563
  H         3.6594881407        0.0816041439        9.3505416993
  H         5.2361148392        0.5765179646       10.2287716047
  C         6.3578341109        1.9639331679        8.1578768976
  H         4.2899396343        1.3349261046        7.5648372544
  H         5.3594497645        0.0036621337        7.7707597369
  C         7.5546706991        1.3152867307        8.8522124968
  H         6.5855179384        2.0740578567        7.0950611272
  H         6.1027458597        2.9675183429        8.5951641562
  C         8.7855615977        2.2454952176        9.0497890650
  H         7.8085524825        0.5357733134        8.1467826813
  H         7.3614752591        0.7944845703        9.7147351903
  C         8.4330645611        3.5713036816        9.7708403876
  C         9.2795551096        2.9560555805        7.8434714639
  C         9.8825551849        1.5625009956        9.8569789316
  C         8.6971174445        4.7113711723        9.0154198442
  C         7.8624821428        3.9163424800       11.0391555703
  C         9.2270495212        4.2868425642        7.7915645757
  C         9.8081618706        2.4486390684        6.6947983327
  H         9.5724033793        1.2403162919       10.8689806237
  H        10.0775979032        0.6745172254        9.4120747473
  C        11.1762147764        2.4306485166       10.0683070058
  S         8.3886037954        6.1859938220        9.8349615774
  C         7.7671487862        5.3388408840       11.1268118625
  H         7.6523526616        3.1577817392       11.7778807431
  C         9.6449193377        4.9810210893        6.7072987980
  H         9.9215282604        1.3725291991        6.5813213780
  C        10.1496925619        3.1030298322        5.5644680134
  H        10.9866011551        3.4598934692       10.4869548146
  H        11.7322597724        2.7881394690        9.1121119546
  C        12.0096861745        1.7276292452       11.1383448815
  C         7.3098072426        6.0521135968       12.3459809079
  C        10.0431120295        4.4228614136        5.4951327997
  H         9.5581761277        6.0259430677        6.8004212883
  C        10.5654077221        2.7546030878        4.3303665532
  H        12.9661008610        2.2990174042       11.2753437543
  H        12.4915954143        0.8818749773       10.7621564696
  C        11.4059748232        1.4891490954       12.5118142179
  C         7.2382661191        7.4787391923       12.5833555636
  C         7.0839504705        5.1688123074       13.5453536043
  C        10.4825922433        5.2182750586        4.3268289247
  C        10.7749980655        3.8882835382        3.5705798409
  S        10.9257100100        1.2568516396        3.5029551899
  H        10.6617152309        2.3366101080       12.7542136698
  H        10.8519181371        0.5380215213       12.5018432987
  C        12.4864827660        1.6051819283       13.5521773874
  N         7.4394718960        8.4772976342       11.6540633829
  C         7.0587969483        7.9986759160       13.8486387742
  C         7.0517075905        5.6739341511       14.8111421295
  H         6.9219186486        4.1508533807       13.3671928721
  C        11.7406237445        6.1030017622        4.4594698778
  C         9.3272792706        6.0589267637        3.7407480140
  C        11.1735029858        3.5216568134        2.2447144263
  C        11.2005005170        2.1259592085        2.0402515359
  H        12.9851190566        2.5131767597       13.3623901620
  H        13.1225292994        0.7074185703       13.3793559597
  C        11.9560585867        1.6915873349       15.0033754558
  S         7.4753863359        9.8964558513       12.3876775605
  N         7.0222761070        9.3745570981       13.8282895650
  C         6.9802223319        7.1502277899       15.0083785754
  H         6.8000319602        5.0192948888       15.6332567514
  H        11.5268274180        6.8490561192        5.2312065217
  H        11.9984084766        6.5822891021        3.5262673957
  C        12.9725200421        5.2856995854        4.9475202651
  H         8.8894408849        6.5973403446        4.5748349222
  H         9.6642720568        6.7480039610        2.9103604228
  C         8.1892178218        5.2715625351        3.0097475232
  H        11.3723660164        4.3542104613        1.5160021211
  C        11.4787447808        1.4283381269        0.7285103728
  H        11.7154865907        2.6960990390       15.2381775297
  H        10.9795529963        1.2044872739       14.9700703148
  C        13.0350652637        1.1756867971       15.9014881105
  C         6.7289102671        7.7687638656       16.2565992584
  H        12.7774315975        4.6468862247        5.7898969593
  H        13.3898018729        4.6671255595        4.1908382974
  C        14.0572917495        6.2054785657        5.4916549943
  H         7.6382612270        4.5323049030        3.6106959231
  H         8.5987289310        4.7442882562        2.1394620731
  C         7.2730531908        6.3323432923        2.3730286941
  C        11.5174302748        0.0147599068        0.5230744963
  C        11.7103514371        2.2768420876       -0.4711294938
  H        13.9480603629        1.7112439095       15.7039767640
  H        13.2799587585        0.1165216200       15.7619914472
  C        12.6652637375        1.4102069044       17.3509683630
  H         7.0390174264        8.8416270316       16.1916620657
  C         6.3325175912        7.3765312905       17.4982456092
  H        13.7921230046        6.7147179126        6.4297560566
  H        14.0982603742        7.0252775462        4.8214884150
  C        15.5158479788        5.6735552015        5.6105345996
  H         6.8346231537        6.8765646247        3.2422629597
  H         7.9511194844        7.0567766714        1.8719576680
  C         6.2330648257        5.7186603932        1.4672855756
  N        11.3937603503       -0.9698885349        1.4951897085
  C        11.7626938742       -0.5135634192       -0.7290806553
  C        12.1284869824        1.7753115046       -1.7083843281
  H        11.6960257321        3.3926020399       -0.3567006863
  H        12.8067911660        2.4381478259       17.6527156684
  H        13.2831975531        0.7218011063       17.9167259006
  H        11.6624406475        1.1504423453       17.6168528117
  S         5.8255199617        5.8339819830       17.9228552287
  C         6.1237247233        8.4871802348       18.5049407222
  H        15.8262731417        5.0308345312        4.8009088497
  H        16.2071057334        6.5506389447        5.6039126329
  C        15.7821255800        4.9146401508        6.9046229444
  H         5.4919450070        5.1457743503        2.0723081144
  H         6.7681531959        5.1158485855        0.7883678520
  C         5.4265972259        6.7595414577        0.7342812716
  S        11.4057403646       -2.4109055996        0.7389278856
  N        11.7296003351       -1.8872704250       -0.6954597741
  C        12.1454752516        0.2738095141       -1.8366613671
  H        12.5026077556        2.4300813301       -2.4445691934
  C         5.7425064140        6.5162413587       19.5835218780
  N         5.8736546849        7.9007702624       19.6420864896
  O         6.3800540534        9.6636747407       18.3218142570
  H        15.5818668240        5.5778238317        7.7814918203
  H        14.9985623178        4.0841081425        6.9639788639
  C        17.1344858723        4.2285244491        6.9908493294
  H         6.1223667056        7.4914768379        0.1787279986
  H         4.7440416400        6.3920668868       -0.0733226695
  C         4.5288483169        7.6446867342        1.6820021956
  C        12.4995868114       -0.4038656452       -3.0504460483
  S         5.7716344204        5.5873721131       20.9948115627
  C         5.9048406977        8.6890664714       20.8717997876
  H        17.2689506311        3.7163763279        7.9381881585
  H        17.4129891648        3.3931490637        6.3177179932
  C        18.2916681206        5.2566916219        7.0214033709
  H         4.7430916985        7.3531527087        2.7074457312
  H         3.5131912806        7.4839975908        1.5669574761
  C         4.7768893293        9.1348323470        1.6524056670
  H        12.1295013762       -1.3647774801       -3.1328087258
  C        13.1922511409       -0.0095953178       -4.1304932293
  H         5.2438969756        8.2526344158       21.6350134422
  H         5.4456204225        9.7444210858       20.7880521286
  C         7.3417100477        8.9832693124       21.4423904385
  H        19.0385781503        4.8663487018        7.6403816416
  H        17.9775610286        6.2006304257        7.4978672266
  C        18.9150221908        5.4657167084        5.6490356815
  H         3.9318083697        9.5559547522        2.2327919694
  H         5.5879436093        9.3346520689        2.3202839411
  C         4.8472320617        9.6908124581        0.2813068262
  S        13.8215344025        1.5459150522       -4.5706082363
  C        13.3209561041       -1.0597171197       -5.1555952670
  H         8.1282519955        9.0837622366       20.7119674594
  H         7.5856635711        8.1424238089       22.0503965687
  H         7.5274880733        9.8366918072       22.0790214838
  H        18.5246579758        4.7548348964        4.8287894380
  H        18.7695560444        6.4691800123        5.3233386663
  H        20.0017299318        5.3248257742        5.6474800930
  H         4.4296126894       10.7276883752        0.2716953897
  H         5.8477998584        9.9313096080       -0.0723901929
  H         4.3158131963        9.0296134563       -0.4042967645
  C        14.2520312925        0.7503046821       -6.1227373761
  N        13.9819199874       -0.5851672464       -6.2606148613
  O        12.7318408416       -2.1537361486       -5.1227327899
  S        14.9128988595        1.5859226609       -7.4938669372
  C        14.1427967636       -1.4101501975       -7.4738540846
  H        13.9838868025       -2.5060367589       -7.2988763843
  H        15.1343632319       -1.3796599405       -7.9328278351
  C        13.0835332389       -1.0770519950       -8.5117916193
  H        12.1802080614       -0.9423707112       -7.9300543033
  H        13.0262458114       -1.8158378603       -9.3777090594
  H        13.2916942835       -0.0809048043       -9.0602571784
  H        -3.2786688119       14.7537711781       16.3038456322
  C        -3.1352701353       13.6875629792       16.2701415885
  H        -4.0946012682       13.1452329987       16.5212883836
  C        -2.0326692531       13.5587194119       17.4028038010
  C        -2.7008683133       13.1003068501       14.8493312254
  C        -2.6533627419       13.6289193394       18.8134272893
  H        -1.5186915984       12.6222004751       17.4364097489
  H        -1.3817700047       14.3826126340       17.1650398860
  H        -1.9511780227       13.7314919811       14.3758395162
  H        -2.1747214003       12.1144348966       14.8960064941
  H        -3.5448000615       13.0450631487       14.1286861392
  C        -1.7078036143       12.9736636797       19.7490764019
  H        -3.5755220931       13.0774287628       18.8161733998
  H        -2.7424722704       14.6614425032       19.0922383128
  C        -2.3059219891       12.8092596501       21.1968525227
  H        -1.5048496582       11.9354058830       19.4548338883
  H        -0.7811914103       13.5799242546       19.7075733988
  C        -1.2581490038       12.3954478818       22.2572348219
  H        -3.1518559384       12.1051263053       21.1950796031
  H        -2.6997919388       13.7094400920       21.5640644522
  C        -0.1292954051       13.3967612534       22.5157173443
  H        -1.7670243259       12.2601411732       23.2141276987
  H        -0.9244794441       11.3709197639       22.0374089171
  C         0.9861064976       12.8239845118       23.3551078586
  H         0.2770167991       13.7125544859       21.5292982067
  H        -0.4766135534       14.2891763431       22.9886820587
  C         1.4761542754       11.5538648025       22.7106173078
  C         0.7084794975       12.0818735944       24.6689568261
  C         2.1869571480       13.8342229267       23.5488193404
  C         1.4779282870       10.4269570565       23.5237128230
  C         1.9628167443       11.1181061692       21.3976502006
  C         0.9291769179       10.7691207904       24.7259621393
  C         0.0712510499       12.6353176834       25.7529002502
  H         2.1604624558       14.4931904068       22.6883946390
  H         1.9859429449       14.5219501246       24.3129815505
  C         3.5445883782       13.2584017283       23.7957287389
  S         1.8781088657        8.9555793170       22.6995752451
  C         2.2011028364        9.7906190684       21.2857486186
  H         1.9670331573       11.8349309018       20.6262692190
  C         0.5377924682       10.1113586760       25.8807697309
  H        -0.0074850891       13.7552021843       25.6732821534
  C        -0.2032096581       12.0495794208       26.9545042377
  H         3.8815187055       12.4314757987       23.2271067198
  H         3.5725761084       12.8783485539       24.8359786481
  C         4.6793366498       14.3618519371       23.6945293843
  C         2.4021638249        9.0483738453       20.0132988326
  C        -0.0363285446       10.7161112785       26.9721735685
  H         0.4644437869        9.0942895062       25.8317113880
  C        -0.6584709166       12.4137613490       28.1959608867
  H         5.5865846681       14.2019069466       24.3742642110
  H         4.1702075517       15.2577445342       24.1467091757
  C         5.1518691890       14.7229070981       22.3110614906
  C         2.4499470960        7.6439600430       19.7972505813
  C         2.6331215019        9.8519583398       18.8059964289
  C        -0.4991601879        9.9817766087       28.2534493878
  C        -0.8008721858       11.2869729659       28.9519601679
  S        -0.9671241731       13.9247516359       28.9743634204
  H         5.5782700536       15.7699239202       22.4113679643
  H         4.4087117875       14.8092806591       21.4947096012
  C         6.3543708581       13.8249669595       21.8495724677
  N         2.2968667885        6.6520937787       20.7801444100
  C         2.7049508729        7.0874759370       18.5457567963
  C         2.9224784741        9.3218570046       17.5276701953
  H         2.6715819484       10.9362969165       18.8191636281
  C         0.6541350951        9.1084931680       28.8686101668
  C        -1.7945865470        9.1095467816       28.0211189385
  C        -1.1771500488       11.6693033425       30.2664561990
  C        -1.4065252004       13.0464646820       30.3928129392
  H         7.1229123034       14.3716922354       21.2920430358
  H         6.8135349586       13.5100439670       22.8089040204
  C         5.9834096951       12.5396054440       21.1768542483
  S         2.2234845039        5.1850435062       19.9955942598
  N         2.4932982987        5.7265460662       18.4698875637
  C         2.9770469013        7.8080622741       17.3944766902
  H         3.0981058880        9.9718032677       16.7439988711
  H         0.6852296546        8.2063142442       28.2665059678
  H         0.3166135345        8.6959400323       29.7798010198
  C         2.0851873315        9.7268168314       28.8766962618
  H        -1.4989276790        8.2572980908       27.3844547713
  H        -2.2163881954        8.7657733799       28.9663465390
  C        -2.9000246752       10.0100496859       27.3471042098
  H        -1.3365895588       10.9240948910       31.0361081795
  C        -1.7600022007       13.7323114816       31.6678711558
  H         5.1699828317       12.0785209090       21.7792119799
  H         6.8810220858       11.9408922969       21.1590593711
  C         5.5841536641       12.6789411558       19.7528557257
  C         3.1408060339        7.0898348247       16.1446417495
  H         2.5591263687        9.4200730355       27.9750910379
  H         1.9846331156       10.8175258786       28.6779262964
  C         2.7403736361        9.4743837932       30.1912474198
  H        -2.6803572472       10.4182465806       26.3416489524
  H        -3.0506353036       10.8340612272       28.0359421078
  C        -4.1891222236        9.2948743594       27.2725124529
  C        -1.9728017574       15.1065638011       31.8423015658
  C        -2.0068502799       12.9121566075       32.9029912900
  H         5.2119497285       11.6824958393       19.5500627858
  H         4.7729558752       13.4084825243       19.5500660050
  C         6.7872932452       13.0341405704       18.8991234693
  H         3.2678636316        5.9896765854       16.2181791196
  C         3.4126127884        7.4606140972       14.8327593104
  H         2.6455019057        8.4608173754       30.5100022857
  H         2.1716962758        9.9507743537       30.9431340362
  C         4.1913318495       10.0312609776       30.3848396851
  H        -4.0669468336        8.2801224968       26.9978347251
  H        -4.6997720458        9.3494546071       28.2127365497
  C        -5.0526780540       10.1026274522       26.3639649604
  N        -1.6805100509       16.0647399179       30.8861385716
  C        -2.2539710036       15.7490100298       33.0507516163
  C        -2.3652999457       13.4479918974       34.1214606803
  H        -1.8895139584       11.8428527051       32.8701724878
  H         6.5245449672       13.0001132218       17.8184218663
  H         7.1220279402       14.0935922802       18.9849393232
  H         7.5000790518       12.2120524155       18.9441906211
  S         3.6069036454        9.0961511921       14.2470579593
  C         3.3759549854        6.3853415207       13.8057040683
  H         4.3284484530       10.9603370133       29.7569909345
  H         4.3636467847       10.3347592064       31.3911655722
  C         5.2368555074        9.0898968178       29.8867121255
  H        -4.6507965059       10.3372568902       25.3550528222
  H        -5.3596862330       11.0746471292       26.7495063302
  C        -6.4055853286        9.4151782701       26.1194227326
  S        -1.6407572168       17.5244554803       31.5937305103
  N        -2.2477203285       17.1538224584       33.0068284911
  C        -2.5596113263       14.9672928876       34.2254954665
  H        -2.5595561866       12.8832073602       34.9445305528
  C         3.5809623986        8.3109539937       12.6711722698
  N         3.5138565061        6.9866125192       12.6281055898
  O         3.2153665510        5.2112356603       13.9764074184
  H         6.3264121057        9.5312293740       29.8076578840
  H         4.9882579480        8.5819914473       28.9832001558
  C         5.3484764537        7.9381210974       30.9076834518
  H        -6.3228227670        8.3257269991       25.9180957471
  H        -6.9521152353        9.5214620023       27.0493959404
  C        -7.2050824896       10.2793683119       25.1254150248
  C        -2.8603773767       15.6450850646       35.4052814701
  S         4.1821858504        9.1155183192       11.2183905847
  C         3.5778026255        6.2271546590       11.3673808638
  H         5.7831484716        8.3912873802       31.7574400755
  H         4.4085230057        7.5815520539       31.2936463043
  C         6.3070368670        6.8797807641       30.4335675120
  H        -6.6278830366       10.5821403300       24.2526540008
  H        -7.4705488890       11.1439731149       25.7822163407
  C        -8.4891870807        9.6298900717       24.6384438040
  H        -2.3175988251       16.5682867735       35.3695789019
  C        -3.4309693845       15.3881638396       36.5458700532
  H         4.3525446918        6.5340193663       10.7131899917
  H         3.6721919403        5.1671259306       11.5329558586
  C         2.2056380918        6.2286522413       10.7168929339
  H         7.2171969664        7.4303811101       30.2322343055
  H         5.9427608788        6.5172324305       29.4273403084
  C         6.4776488906        5.7232464765       31.4883287157
  H        -8.9395228350       10.1268441342       23.7926848858
  H        -8.2490466786        8.6151669472       24.2802886457
  C        -9.5915413466        9.5452624152       25.7071929578
  S        -4.2141040144       13.8905364160       36.9001218292
  C        -3.4360449031       16.3672323406       37.6569880835
  H         1.9468128306        5.3117886167       10.2388299019
  H         1.4606674113        6.1675562793       11.4495591684
  H         2.0478501440        7.0691552732       10.0494677411
  H         7.2163298326        4.9543953532       31.3254179509
  H         5.5276945068        5.1874685490       31.5976783365
  H         6.6218156489        6.1800640575       32.4856486077
  H       -10.4968687640        9.0742154794       25.3042025739
  H        -9.8817122672       10.5521660069       25.9326422185
  H        -9.3200514608        9.0317896214       26.5900010169
  C        -4.4249846142       14.5353370355       38.5284279926
  N        -4.2017187250       15.8997769305       38.6494740953
  O        -3.0592506486       17.4908874856       37.4008247988
  S        -5.5161665850       13.9193301239       39.7617353057
  C        -4.4785426006       16.7597831941       39.7752415322
  H        -4.4232113935       17.7739046120       39.5500505310
  H        -5.4838760312       16.6724636448       40.0940340963
  C        -3.4903228663       16.4537098280       40.8406914050
  H        -3.4817602113       15.3996689913       41.1902548496
  H        -2.5241077138       16.7377670597       40.4060162723
  H        -3.6504103650       17.0618672384       41.7442934501
