352
i=
  H         2.2952165452        2.0971167422       12.5355758161
  C         3.2283981543        2.4043120124       12.1401749877
  H         3.8375661338        1.5202493516       11.9182817873
  C         3.0779564673        3.2609358160       11.0022981143
  C         3.8626990546        3.1919618328       13.2725153734
  C         4.3261786780        3.3321012039       10.1775609472
  H         2.7982796669        4.1775461949       11.4771295353
  H         2.2153159232        2.8551369436       10.3717991039
  H         4.0748571804        2.4881566456       14.0581775730
  H         3.1527010861        3.8622969937       13.6876839573
  H         4.7353563715        3.8046763708       13.0202300060
  C         4.7703572521        2.0032755439        9.6362745599
  H         4.1219209315        3.9013423836        9.2559845877
  H         5.1210954787        3.8451049066       10.6651744188
  C         5.4962907632        2.1128218897        8.2572405872
  H         3.9347557781        1.2583190924        9.6235301054
  H         5.4772167360        1.6058562445       10.3620165580
  C         6.7698496674        2.9283150745        8.1910295260
  H         4.8304811060        2.5555945888        7.4987747531
  H         5.5774078060        1.0752238925        7.9088732017
  C         8.0321779055        2.2676314253        8.8088059411
  H         6.9647360841        3.2592179346        7.1515751040
  H         6.7161456302        3.8901776111        8.7435009636
  C         9.2653612474        3.0957417052        9.1194967563
  H         8.1991065048        1.5233589775        8.0556061686
  H         7.8581962828        1.6069799725        9.6928278094
  C         8.9037094752        4.5072725879        9.7593323053
  C         9.7908338249        3.8294616156        7.8597249643
  C        10.3109088411        2.3405719142        9.9530381825
  C         9.1285872484        5.6421431663        8.9328033914
  C         8.3832112821        4.9539270402       10.9982833642
  C         9.6389537614        5.2099294360        7.7504152112
  C        10.3292370481        3.2949151948        6.6974086243
  H         9.9208343749        1.9308807166       10.9159428920
  H        10.5717753381        1.4498501948        9.3699708476
  C        11.6506834372        3.1011554297       10.1868574427
  S         8.7389835513        7.2010523661        9.6929061469
  C         8.2157461111        6.3183513461       11.0710621954
  H         8.2657279968        4.2125461750       11.7573476135
  C         9.9852876943        5.8817545828        6.5880752250
  H        10.3098746546        2.2194034517        6.7070601823
  C        10.6381228787        3.9856590115        5.5223621359
  H        11.3619183438        4.1210841817       10.5420127216
  H        12.2370685548        3.3273111346        9.3176253752
  C        12.5669793754        2.3872368908       11.2296929419
  C         7.7804429059        6.9695237456       12.3400040291
  C        10.5127642009        5.3038933538        5.4026073734
  H         9.7437775689        6.9143046081        6.6108852234
  C        10.9910149545        3.6142111398        4.1947545075
  H        13.4790765920        1.9621959887       10.7949728269
  H        11.9438483561        1.4944350499       11.5268162679
  C        12.8932638768        3.3525831395       12.2464730352
  C         7.7694886072        8.3847471509       12.5477203696
  C         7.2370546795        6.1053895576       13.4794868423
  C        11.0163877814        6.0057657305        4.1277402993
  C        11.2550073843        4.6564298697        3.3975722384
  S        11.3273665476        2.0844951628        3.4663275596
  H        13.6582216998        3.9651839011       11.8534978511
  H        12.1072034500        4.0105128068       12.5771893992
  C        13.5254084406        2.6808016004       13.3924251666
  N         7.9000818587        9.3647704246       11.5077193009
  C         7.5277552480        8.9292387991       13.7863353935
  C         7.0207823588        6.7058066493       14.7307779899
  H         6.9410899461        5.0844091165       13.3861637908
  C        12.3912434360        6.7270793022        4.2141201386
  C         9.8810768971        6.9327463957        3.5384679575
  C        11.6696394220        4.2579248651        2.1228904246
  C        11.7695954079        2.8963577200        1.9795483522
  H        14.0712149774        3.2720260067       14.1026757471
  H        14.2440238979        1.9060961589       13.0198728904
  C        12.4853236317        1.9509420278       14.2943937517
  S         8.0191480060       10.8937888994       12.2197597295
  N         7.7074947860       10.3338161758       13.7143164461
  C         7.1558346417        8.1636215613       14.9150689002
  H         6.6071065843        6.0534223705       15.5412921672
  H        12.3521096539        7.6576446797        4.8296794223
  H        12.6846456499        6.9563296861        3.2239056412
  C        13.4792289380        5.7799209339        4.6812302877
  H         9.6079701657        7.6332746303        4.3278712220
  H        10.2982623495        7.4421993977        2.7054640357
  C         8.6346667706        6.1025382161        3.1145128007
  H        11.8200916525        5.0201423802        1.3316517475
  C        12.0272103222        2.1102936677        0.6931237988
  H        11.4525715210        2.0224084079       13.8669660647
  H        12.8361963268        0.9275081743       14.4442461929
  C        12.4205653652        2.5360250484       15.6926430342
  C         7.0070092957        8.8173537433       16.2004414400
  H        13.1406262431        5.2054771795        5.5528446489
  H        13.7888666032        5.0706602950        3.9507178637
  C        14.7610681691        6.4797617964        5.2033101287
  H         8.2998935580        5.4435884230        3.9292127882
  H         8.8808370039        5.4229794001        2.3080941190
  C         7.4626075079        6.9777861958        2.7544444685
  C        12.0505802476        0.7410745222        0.5396162310
  C        12.3703986777        2.9605003932       -0.4868144852
  H        11.4411468068        2.4683305817       16.1741462470
  H        12.6425038051        3.6092805460       15.6858707717
  C        13.4751112641        2.0283447403       16.6563614260
  H         7.1765803983        9.8844144705       16.0949976600
  C         6.7550892448        8.3530774974       17.4822263404
  H        14.5004750434        7.0066437650        6.0380029402
  H        15.0553443236        7.3048749634        4.5166432974
  C        15.8835575749        5.5076353557        5.5155920741
  H         7.1649401422        7.6042223620        3.5886293781
  H         7.8345277755        7.6196583274        1.8739555974
  C         6.2353748979        6.2139873340        2.1665395040
  N        11.8262806564       -0.2160129714        1.5032258820
  C        12.3713431676        0.1754897308       -0.7207716780
  C        12.8111723855        2.4427848215       -1.6747286736
  H        12.5696402077        3.9917993009       -0.3332104542
  H        14.4050786992        1.8142733371       16.2563332678
  H        12.9754205672        1.1331548548       17.1714032660
  H        13.6800767411        2.7348826965       17.5506101950
  S         6.1909435261        6.8225549810       17.9300791888
  C         6.6913322519        9.3969574830       18.5627097820
  H        15.5409221495        5.0156250650        6.4365791608
  H        16.0994866851        4.7291060166        4.7797144983
  C        17.1461786529        6.2612296789        5.8536575014
  H         5.6985982788        5.6721941935        2.9351418689
  H         6.5943552955        5.3929008504        1.5459658150
  C         5.2747878675        7.1965691481        1.5157597203
  S        11.8503367389       -1.6811468073        0.7874048826
  N        12.2510171986       -1.2537111388       -0.7404182777
  C        12.6779235815        0.9443778713       -1.8415847023
  H        13.1051198245        3.1612597597       -2.3838203117
  C         6.1567318788        7.4647240403       19.6526116978
  N         6.3300056752        8.8371680653       19.7519775193
  O         6.9826287958       10.5956385000       18.3533613186
  H        17.6854370949        6.2187944202        4.9070772260
  H        16.8662422368        7.2699512400        6.0740326534
  C        17.9485723810        5.5776323345        6.9689251015
  H         5.7859418586        7.7286963545        0.7552434818
  H         4.5296182717        6.6704767520        0.9401109587
  C         4.4954962363        8.0857127231        2.4490897425
  C        12.9327527293        0.2006925406       -3.0862470019
  S         5.7413162295        6.6372823822       21.1607292266
  C         6.3504852757        9.5886771343       21.0008349102
  H        17.3104517305        5.4214783991        7.8267306542
  H        18.3061562461        4.5950483964        6.6186031756
  C        19.1931808829        6.3154740291        7.5244898057
  H         5.1689901820        8.6691475039        3.0804553469
  H         3.8318308782        7.5370551520        3.1863801873
  C         3.7936287941        9.2127065001        1.6704063180
  H        12.6116512609       -0.8369004031       -3.1090234565
  C        13.4696505809        0.6258336197       -4.2918572858
  H         5.6731500572        9.0535663289       21.6870642756
  H         5.8049290721       10.4546534213       20.8262528482
  C         7.7445597728        9.7331313021       21.6400356752
  H        19.4280371312        5.7047799442        8.3699385331
  H        18.8609737039        7.2316494537        7.8391293625
  C        20.4140506187        6.2976804802        6.5856243377
  H         3.1138872679        8.8289405688        0.8920153464
  H         3.0630709862        9.7629203662        2.2970009269
  C         4.8189524796       10.1832105297        0.9868257745
  S        14.0614136612        2.2235480769       -4.7294220424
  C        13.7454632448       -0.3435897546       -5.4101351280
  H         8.0562491923        8.7477189177       21.9841364240
  H         7.7036248041       10.4125073312       22.4952031982
  H         8.5422204539       10.1022117005       20.9403994072
  H        20.9742255533        5.3185056813        6.5229703706
  H        20.0869492020        6.8385410131        5.7029128231
  H        21.1514172785        6.9443322438        7.0889535897
  H         5.7752710136       10.1266410057        1.4734543225
  H         5.0349031086        9.9448260271       -0.0637015835
  H         4.5019463154       11.2050044306        1.0271030541
  C        14.3140463844        1.6131926943       -6.2871787199
  N        14.2689066201        0.2548064539       -6.4876399521
  O        13.3662272486       -1.5246808510       -5.3602742336
  S        15.1226295566        2.5236565235       -7.6265412117
  C        14.2945058263       -0.4028285392       -7.7528198719
  H        14.4732172704       -1.4941449909       -7.5722273398
  H        15.1319183116       -0.0644464509       -8.3347474811
  C        12.9571961808       -0.3540307111       -8.3626889724
  H        12.9810937163       -0.9844106104       -9.2047412214
  H        12.5966920772        0.6928565485       -8.6547940446
  H        12.2444126200       -0.8550546634       -7.7435740945
  H        -2.6063225822       15.8663097649       16.0516288817
  C        -2.9169313809       14.8930229967       16.3548139409
  H        -3.9586558769       14.9641729010       16.7813206992
  C        -2.0163276070       14.2241780828       17.3752913454
  C        -3.0562165141       13.9874154295       15.1285351426
  C        -2.7873015753       13.9206313041       18.6409106717
  H        -1.6864739416       13.3574078158       16.9955060044
  H        -1.2336245845       14.8605731310       17.6321073642
  H        -2.1585320415       13.9827565893       14.5722507954
  H        -3.4689771067       13.0405151174       15.4043288061
  H        -3.7821843505       14.4595620980       14.4562999399
  C        -1.8542537450       13.5582152967       19.7302717897
  H        -3.4587774416       13.0979164607       18.4126539442
  H        -3.3953161172       14.7795675917       18.9492822989
  C        -2.4435040611       13.3454519749       21.1849598264
  H        -1.3006706090       12.6900985946       19.5995204180
  H        -1.1745469890       14.3809495031       19.7474763674
  C        -1.3971237323       12.7149527052       22.1285011951
  H        -3.2857379654       12.6588299151       21.0616167703
  H        -2.8917562057       14.2201044708       21.6725616790
  C        -0.2808945494       13.7887981378       22.3391304576
  H        -1.8873171486       12.6611211211       23.1423589723
  H        -1.0952685975       11.7189117200       21.9410074861
  C         0.9972672245       13.2146538134       23.1349343758
  H         0.0911190986       14.2088871800       21.4517944507
  H        -0.7314954516       14.5991967111       22.9812169835
  C         1.3754718920       11.9043745962       22.4002267085
  C         0.6958541082       12.4600176121       24.4167614954
  C         2.2161109129       14.1589827558       23.2778642742
  C         1.1933083461       10.7581524955       23.1915244705
  C         1.8046927726       11.6036521087       21.0824320090
  C         0.7307772774       11.1156040557       24.4538593345
  C         0.2389462862       13.1044580063       25.5408077634
  H         2.3164892503       14.6533868690       22.3478834328
  H         1.9293518644       14.8232913600       24.0795803276
  C         3.5809025168       13.6060781697       23.7123321409
  S         1.7492757886        9.3290522600       22.3198133297
  C         2.1354523565       10.3014788810       20.9216928748
  H         2.0638203141       12.3959987893       20.4342752108
  C         0.3726496337       10.4950469213       25.6098602268
  H         0.1589828567       14.1627660064       25.5607689835
  C        -0.0309294432       12.4760227803       26.7240307756
  H         3.6812283884       12.7216590941       23.1140367591
  H         3.4074539874       13.2209676754       24.6944440256
  C         4.7793949386       14.4797007365       23.7208861650
  C         2.7142275532        9.7077608735       19.6881892555
  C         0.0093838719       11.1361794091       26.7883703692
  H         0.3280631321        9.3937121183       25.6458495808
  C        -0.3778295528       12.8656274773       27.9721794503
  H         5.5601711963       14.0168434391       24.2342940551
  H         4.5224740187       15.3912654559       24.3349380352
  C         5.2141207242       14.7209227827       22.3014547315
  C         2.7776813009        8.3197279486       19.4524392614
  C         3.1474970359       10.5979714294       18.5987557619
  C        -0.3856931596       10.4534459853       28.0569639613
  C        -0.6593114520       11.7523069168       28.7736478936
  S        -0.5543596232       14.3998901142       28.7018413589
  H         5.9202370218       15.5623549003       22.3754552953
  H         4.3498197212       14.9735650055       21.7125631672
  C         6.0294006921       13.6083186248       21.6433575590
  N         2.4300971261        7.3123104641       20.4172049411
  C         3.0647070770        7.7780908405       18.2097648532
  C         3.3718595592       10.0919841610       17.3753535992
  H         3.0890401991       11.6621346244       18.7342440927
  C         0.7011427472        9.6406097802       28.8191888100
  C        -1.6599982852        9.5741049923       27.9551994926
  C        -1.0147055962       12.1630688880       30.0743626987
  C        -0.9738866106       13.5435249684       30.1564160664
  H         7.0674480707       13.6443319690       21.9682148799
  H         5.6190429496       12.7159248280       21.8215214904
  C         5.8059884123       13.7439883597       20.1016398299
  S         2.2928067587        5.8522474943       19.6346483867
  N         2.7495969067        6.4201992191       18.1504814348
  C         3.3609653091        8.6314980570       17.1051020956
  H         3.5879893730       10.8260923835       16.6289955458
  H         0.7623552796        8.6803420977       28.2899625564
  H         0.2823781371        9.4619992679       29.8433011647
  C         1.9735738113       10.3670816969       28.8095175110
  H        -1.5965830059        8.8336982783       27.2339532489
  H        -1.8204323035        9.0447723164       28.9522807981
  C        -2.9674175458       10.3115898907       27.5863832037
  H        -1.2116566765       11.4984414414       30.9295909455
  C        -1.2087169274       14.3220934803       31.3993238056
  H         5.3576632624       14.7302286766       19.9217902988
  H         4.9808451939       13.1374684036       19.7082009886
  C         7.0894360075       13.6748897287       19.2851122249
  C         3.4905036694        8.0329144928       15.8907065712
  H         2.2673899946       10.5647735664       27.7642471092
  H         1.8693481938       11.2939501386       29.2395686141
  C         3.0329022856        9.5794586095       29.5481697915
  H        -2.7691697064       10.7598279453       26.6116370020
  H        -3.0174720580       11.0089409980       28.4113850123
  C        -4.3046663146        9.6121543525       27.4150509500
  C        -1.3035836418       15.7270062049       31.5605964850
  C        -1.3012804555       13.5949885464       32.6439370352
  H         7.6858680950       14.5558688393       19.5690948781
  H         7.6730820720       12.8442932079       19.6882209032
  C         6.7864084965       13.5869572475       17.7578289220
  H         3.3808848017        6.9595607950       15.8548978898
  C         3.8882090998        8.4624039687       14.6289269991
  H         3.1015136437        8.6166792858       29.0500746738
  H         2.6088290309        9.3371054832       30.4934265363
  C         4.3854722485       10.2747644470       29.8049505124
  H        -4.0280165706        8.6813551549       26.9465026925
  H        -4.7508317236        9.1302436791       28.3212526125
  C        -5.2850680026       10.4250288548       26.6321809030
  N        -1.0954239623       16.6158785728       30.5244362868
  C        -1.5932642233       16.3417984070       32.7500855488
  C        -1.5709123948       14.1339283872       33.8753069330
  H        -1.0438101821       12.5568815573       32.6258787217
  H         6.3785227669       14.5700831638       17.4652155874
  H         7.6530706869       13.4365405142       17.1521890389
  H         5.9355713170       12.9469735761       17.6136646991
  S         4.3096106747       10.0853021779       14.2299527889
  C         3.9890565435        7.4999235129       13.5269709319
  H         4.5678826566       11.0629338982       29.0388896027
  H         4.2828930533       10.8595682531       30.7273197070
  C         5.5409617939        9.3476646899       29.6613363784
  H        -4.7032637110       10.9706582006       25.8461660025
  H        -5.6764788343       11.1462864702       27.3588794305
  C        -6.5280820393        9.7262502287       26.0212931395
  S        -1.1969680789       18.1261929567       31.1655351535
  N        -1.5504319518       17.7234678960       32.6679431893
  C        -1.7318329553       15.5918901414       33.9604624062
  H        -1.6107245408       13.4722852634       34.7354661707
  C         4.4620070140        9.5301984979       12.5259264646
  N         4.3393046956        8.2089225673       12.4062563107
  O         3.8389482071        6.2936689086       13.6068973114
  H         6.4882334619        9.8889494281       29.7771694780
  H         5.4100442086        9.1275253537       28.6224304835
  C         5.5648076060        8.0652079190       30.5263017313
  H        -6.1654885643        9.0030167431       25.2285606407
  H        -7.1576697760        9.2091009091       26.8040145813
  C        -7.3680110639       10.6959059086       25.1826595232
  C        -2.0464446810       16.2354421411       35.1449546260
  S         4.8273256720       10.5633097193       11.1332313344
  C         4.5046779356        7.4900761700       11.1547246510
  H         6.0532107476        8.3271471734       31.4796517897
  H         4.5598940052        7.7576037026       30.8809626958
  C         6.1355779843        6.8764898857       29.8032405453
  H        -6.8980185796       11.0659852236       24.2836898962
  H        -7.5849250959       11.6331321303       25.6558767125
  C        -8.6604807669       10.0921449728       24.6787944661
  H        -1.9006359152       17.2941678161       35.1128926126
  C        -2.5040222821       15.8594998830       36.3759339236
  H         5.3753381076        7.9404837710       10.6791581034
  H         4.8651212107        6.4350966099       11.2985716022
  C         3.3287748306        7.5368852244       10.2336372127
  H         6.7951123013        7.1180644309       29.0133054004
  H         5.2959408195        6.4150084786       29.3643756373
  C         6.8133795398        5.9024791541       30.8065347147
  H        -9.0613016434       10.7013619149       23.8157165335
  H        -8.5541014707        9.0775218742       24.2496245178
  C        -9.7904841707        9.9338863811       25.6732099170
  S        -2.7086299157       14.2492694668       36.8551283587
  C        -2.7744239894       16.9450304628       37.3974505897
  H         3.6352604856        7.7626665334        9.2241597349
  H         2.9369941958        6.5076329370       10.2275944558
  H         2.5329800556        8.1050828764       10.6964764652
  H         6.0534408614        5.5879392509       31.5798614399
  H         7.5427739036        6.6066204631       31.3460805590
  H         7.4205954754        5.1180505157       30.3237610339
  H        -9.5366452268        9.3361130642       26.4784271237
  H       -10.5973268108        9.3899223521       25.2501638475
  H       -10.1364160459       10.9479892634       26.0167087854
  C        -3.3794329020       14.9743081380       38.3312202888
  N        -3.3999905821       16.3420623209       38.4038895690
  O        -2.6434320415       18.1629547467       37.2124093142
  S        -4.0255076903       14.0878908660       39.6955485853
  C        -3.8505677899       17.0936343428       39.5544937701
  H        -3.8918718698       18.1361439726       39.3032851989
  H        -4.8441452982       16.8707065228       39.9381207338
  C        -2.7601315242       17.0638115810       40.5850954482
  H        -2.1901898414       16.1311388261       40.5816992583
  H        -2.1537652662       17.8745306875       40.2235181035
  H        -3.0607403602       17.1656863410       41.6119095701
