352
i=
  H         2.6403485784        3.3277003555       13.0370951654
  C         3.2924431518        2.5200250140       13.0555237815
  H         2.6827688753        1.6708125320       13.0074965916
  C         4.4651910065        2.4826061631       12.1193462762
  C         3.7135774328        2.5514291688       14.4776726270
  C         4.0812447821        2.4681711489       10.6334286501
  H         5.0492581520        1.6554336581       12.3199007034
  H         5.1541642566        3.2995894143       12.2383191468
  H         4.4683130271        3.2868450346       14.6077300963
  H         4.2861570033        1.6307179857       14.6072486269
  H         2.8697148517        2.5358953145       15.1678990701
  C         4.7168943125        1.3766221840        9.7167661472
  H         2.9607190715        2.3829029114       10.5014445886
  H         4.3629954186        3.3984891413       10.2471008210
  C         5.3887696783        1.9457826983        8.4275497023
  H         4.0228070596        0.5283719999        9.4530629991
  H         5.4579588908        0.8317370758       10.2846248694
  C         6.6078243980        2.9142158886        8.5817669777
  H         4.6373402398        2.4727755788        7.9188152052
  H         5.5362028481        1.1977988636        7.6721367259
  C         7.8563511594        2.2452293161        9.1939343818
  H         6.7412094041        3.3320538331        7.5572842625
  H         6.4777659068        3.7327858891        9.2980991152
  C         9.1128933383        3.1583699079        9.2257974250
  H         8.1240999130        1.4363469051        8.5543782520
  H         7.5134306417        1.8287127237       10.1719020443
  C         8.7083897233        4.4988664135        9.9275456251
  C         9.4840531937        3.8779305235        7.9394802143
  C        10.2221698841        2.4269123383       10.0871443648
  C         9.0097584622        5.5521669478        9.0892618357
  C         8.1894721292        4.9239658743       11.1585902038
  C         9.5120383101        5.2196033511        7.8318234902
  C        10.0157970006        3.2922652594        6.8192536318
  H         9.9498723702        2.1014879589       11.0873638758
  H        10.5034166461        1.5579454817        9.4458356703
  C        11.4924621702        3.2233413003       10.3594997015
  S         8.5990254103        7.0757018000        9.8425882628
  C         8.1628537974        6.3191662517       11.2625563645
  H         7.8570701542        4.1728344038       11.8604656222
  C         9.8612903396        5.8255862287        6.6499730485
  H        10.0136787041        2.1941760482        6.8830221171
  C        10.4198542698        3.8599298840        5.6590368552
  H        11.2013083112        4.1520335886       10.7667174104
  H        11.9864434622        3.4209166816        9.4138566265
  C        12.4442915621        2.2885876328       11.1873244261
  C         7.7710933463        7.0286219506       12.5005328180
  C        10.3926683179        5.1776574677        5.4787803744
  H         9.7816433765        6.9371440437        6.6270437331
  C        10.8038632777        3.4371250023        4.4347196433
  H        13.4201574601        2.7723075986       11.0245691108
  H        12.3279262565        1.2804987833       10.8312419546
  C        12.0919503006        2.5534471184       12.7142376894
  C         7.8352742900        8.4061476072       12.7715065665
  C         7.0618324751        6.2595552972       13.6094277945
  C        10.8432325376        5.8355978724        4.1723130787
  C        11.1469135946        4.4974166677        3.5950374217
  S        11.1645707838        1.8728604346        3.7752102150
  H        11.9031335400        3.5945522367       12.7714582837
  H        11.1411569058        2.0816320038       13.0050460695
  C        13.2545089832        2.2067671000       13.6998904045
  N         8.1800851961        9.3288528247       11.8620843801
  C         7.5876933853        8.9134140685       14.0237125911
  C         6.8343794682        6.7890291127       14.8549505594
  H         7.0458107895        5.1554446601       13.5391357326
  C        12.1140160496        6.6376216394        4.3338430077
  C         9.6664007007        6.6213848655        3.5914314825
  C        11.5975883334        4.0602538393        2.3698505617
  C        11.5158494611        2.6812813638        2.3204049609
  H        14.1213035211        2.8301743278       13.5661376720
  H        13.5835771811        1.1578481904       13.5588993613
  C        12.8728444553        2.4285054856       15.1820410120
  S         8.1603218920       10.7800207537       12.5838579380
  N         7.7363201703       10.2894147621       14.0760813770
  C         7.0158521531        8.2085512482       15.1389109754
  H         6.5140571896        6.1035936385       15.5903731539
  H        11.7829928011        7.5342089243        4.9231139453
  H        12.4813889052        7.0633757476        3.3801957863
  C        13.1972529134        5.9812120251        5.2162613767
  H         9.3692091713        7.4479616662        4.2534479346
  H        10.0527019038        7.1006131673        2.7049965965
  C         8.4796343141        5.7200059729        3.0372292507
  H        11.7895973256        4.8366095724        1.6110564377
  C        11.8091194528        1.8156201332        1.1368546649
  H        12.2995893564        3.3189084532       15.4608846752
  H        12.2530805152        1.5911885017       15.5373854792
  C        14.0989869424        2.4675733252       16.0841644030
  C         6.7155705393        8.8565477792       16.3501621113
  H        12.8484956818        5.8042978486        6.1793402817
  H        13.4571565839        4.9752661070        4.7616384307
  C        14.4118176429        6.9491538715        5.3524147391
  H         7.9089961772        5.2095228247        3.8335417327
  H         8.9753068378        5.0184553803        2.3827310164
  C         7.4115188219        6.6548760425        2.3842486661
  C        11.8415334475        0.3720350977        1.0274788641
  C        12.0432558563        2.5374305350       -0.1452232998
  H        14.6873415260        3.3771244182       15.7981048992
  H        14.7309237045        1.5506867280       16.0391859486
  C        13.7088706412        2.6070515798       17.5525185398
  H         6.8629136626        9.9354208359       16.3069019459
  C         6.5684769698        8.3226128227       17.6155318037
  H        14.3421319478        7.4460945831        6.3154361547
  H        14.2318410013        7.8475457667        4.6871344625
  C        15.7617261557        6.3080435921        5.1966165404
  H         6.8888602778        7.2020028004        3.1645990990
  H         7.8262325173        7.3727151699        1.6789805552
  C         6.1606700481        6.0103098279        1.6668611114
  N        11.5677754479       -0.5496614157        2.0275669385
  C        12.1683412465       -0.1801796950       -0.1794874745
  C        12.2531554322        1.9315196100       -1.3965803542
  H        12.0147276158        3.6421917608       -0.1633608464
  H        13.3620267910        1.6676082470       17.9776598422
  H        12.8556068920        3.3243669160       17.4823384987
  H        14.5500756883        2.9917274242       18.1265727987
  S         6.3280028278        6.6981349464       18.0181517772
  C         6.4856925154        9.2759904115       18.6622405786
  H        15.8621769458        5.6515241253        4.4212585991
  H        16.4706922490        7.1134255922        5.0705147828
  C        16.1016875385        5.4770976700        6.4223834537
  H         5.8420533960        5.1799349006        2.2017843370
  H         6.4348778444        5.7651985840        0.6061235943
  C         4.9635209388        6.9678969102        1.5556511719
  S        11.5675292922       -2.0022111631        1.3799756842
  N        11.9965110575       -1.5586864972       -0.1236820947
  C        12.4367927501        0.4813765356       -1.4009025099
  H        12.3584375067        2.5411047091       -2.2774884074
  C         6.1789011559        7.2707752283       19.6858847465
  N         6.2647289733        8.5708867634       19.8029401125
  O         6.7456833090       10.4606571302       18.6130528732
  H        16.0058583254        6.1737489910        7.2971418421
  H        15.3166093619        4.6457353279        6.4706679395
  C        17.5499933439        5.1062388588        6.6473850230
  H         4.0388908351        6.4445027368        1.2648144514
  H         4.5632785849        7.1731694217        2.5507251543
  C         5.3074778707        8.1072731027        0.6298827995
  C        12.7112166205       -0.3294690045       -2.5275358741
  S         5.8931250956        6.2300294313       21.0689266295
  C         6.4028689675        9.1966310205       21.1362023100
  H        17.5750678677        4.7106397449        7.6336481085
  H        17.8831836734        4.2802523341        5.9987352930
  C        18.5536640915        6.3149113221        6.6652099680
  H         5.5110946351        7.8124275910       -0.3845188223
  H         6.2029140127        8.6074370666        0.8326716751
  C         4.1693154503        9.2018569723        0.6538887346
  H        12.6199477526       -1.4005801116       -2.2922199585
  C        13.1642524756        0.0552314290       -3.8125296586
  H         5.8337152339        8.7251844357       21.8756603598
  H         6.0137876309       10.1927036525       21.1119848642
  C         7.9042236531        9.1230981012       21.4928149438
  H        18.4766324362        6.9734944778        7.5396676731
  H        18.2358129926        7.0018791137        5.8617595680
  C        20.0141797555        5.7713811241        6.3923520836
  H         4.4381604675       10.1051943596       -0.0009186214
  H         3.2659900846        8.7658918211        0.2503662929
  C         4.0357666666       10.0325101448        1.9896885193
  S        13.6410759139        1.6416106759       -4.1684017921
  C        13.0922764241       -0.8864626182       -4.9769615285
  H         8.1240478524        9.8894471993       22.2060965060
  H         8.6075661933        9.3240669276       20.6669488064
  H         8.1462931829        8.1550885470       22.0899165549
  H        20.6690087911        6.2434129415        7.1518505587
  H        20.1507971744        4.6450056636        6.3543926672
  H        20.3349793263        6.2030386497        5.4704182667
  H         5.0017770783       10.2717145661        2.3789594182
  H         3.4532985873       11.0155828522        1.8508087506
  H         3.6021884802        9.3542621969        2.7777224320
  C        13.9729043350        0.9695042144       -5.8118723704
  N        13.7053545568       -0.3229343451       -5.9899023783
  O        12.7110105482       -2.0688845409       -4.9671123289
  S        14.7221550061        1.8165478298       -7.2311696971
  C        13.9736905437       -1.0801785864       -7.2272415295
  H        14.0082642766       -2.1398893793       -7.0418460491
  H        14.8988397288       -0.9529309373       -7.8065974908
  C        12.7239472095       -0.9232247030       -8.1276716893
  H        12.9262316575       -1.1922386011       -9.1855828277
  H        12.3794871097        0.1072537995       -7.9476159458
  H        11.8016587292       -1.4430588362       -7.7735105009
  H        -3.1795988504       14.5514020508       16.1590857135
  C        -2.9133156881       13.4634229470       16.3015022425
  H        -3.7828271592       12.9242981414       16.7448169208
  C        -1.8300527677       13.1752602745       17.2889916223
  C        -2.7125606218       12.8710100364       15.0219398543
  C        -2.1158695575       13.8546381059       18.5828876962
  H        -1.8050710596       12.1059274664       17.4411339648
  H        -0.8789464298       13.4733510003       17.0404193390
  H        -2.0500628294       13.5529449754       14.5212910993
  H        -2.3268762183       11.8207808014       15.0933614774
  H        -3.6772633852       12.8991457438       14.5772636288
  C        -1.1475318309       13.4717120844       19.6741968377
  H        -3.2014598248       13.6035962462       18.8220015832
  H        -2.1935009629       14.8996504611       18.3517893066
  C        -1.9008444370       13.3388454562       21.0639813200
  H        -0.6025321271       12.5342744870       19.3192942270
  H        -0.3688514090       14.2108597116       19.7575525082
  C        -0.9575729614       12.8318537460       22.2152486073
  H        -2.7965031549       12.7625807984       20.8960215199
  H        -2.2170427458       14.3128118301       21.4239205955
  C         0.2188106121       13.7676506704       22.5012148716
  H        -1.5001554051       12.7309708128       23.1764637483
  H        -0.6472580281       11.7849551871       22.0260114746
  C         1.4381099861       13.1228529729       23.1309227754
  H         0.6809067914       14.2291935407       21.6373273446
  H         0.0017402730       14.6408859077       23.1224133561
  C         1.8859298485       11.7735930199       22.3955763003
  C         1.0089678877       12.3687022351       24.3319459575
  C         2.6090984398       14.0266310003       23.3806665630
  C         1.6525870454       10.6484516621       23.1559175060
  C         2.4422510237       11.4798171327       21.1209364029
  C         1.1533208951       11.0332777888       24.4168629345
  C         0.6071086944       12.8492548359       25.5824365445
  H         2.7847491447       14.6581616471       22.5141566973
  H         2.4060463525       14.6640041489       24.2266876634
  C         3.8804079202       13.2732989251       23.7738778420
  S         2.1101972567        9.2212542710       22.3336386857
  C         2.5328680475       10.1895934808       20.9228108317
  H         2.7287259747       12.2445980239       20.4761107866
  C         0.8209549725       10.3555283132       25.6076185209
  H         0.6166631137       13.9608894479       25.6590647488
  C         0.2658305577       12.2059761373       26.7383417389
  H         4.2172281602       12.7844845442       22.8839351509
  H         3.6482809229       12.5176944757       24.5791718440
  C         5.1161793895       14.1252708179       24.0556823679
  C         2.9460452337        9.5307257024       19.7255902207
  C         0.4004021779       10.8571223675       26.7982085477
  H         1.0007981144        9.3010677870       25.6203994800
  C        -0.1621748780       12.5310374561       28.0389777722
  H         5.7282684156       13.4490407565       24.6352654889
  H         4.8928024417       14.9026775769       24.7367364011
  C         5.7951002966       14.5175496462       22.7655595420
  C         2.9883926037        8.0936277669       19.4878538927
  C         3.2357111661       10.3446443061       18.4749983667
  C        -0.0202464478       10.0721347169       28.0765266334
  C        -0.3144450461       11.3958877835       28.8113895138
  S        -0.5180702952       13.9936127138       28.7787450032
  H         6.3962986246       15.3717879082       22.8679613359
  H         4.9586639888       14.6994710465       22.1214813557
  C         6.6211686089       13.4983249379       21.9658651147
  N         2.7534397960        7.0834162010       20.4399750993
  C         3.0701538202        7.5278257088       18.2063674496
  C         3.4480375983        9.7312783690       17.2354276050
  H         3.5725892186       11.3786515756       18.5147199150
  C         1.0751188924        9.0896659387       28.6611717265
  C        -1.3107895729        9.2854512919       27.7215913152
  C        -0.7020597094       11.7780605768       30.1373406426
  C        -0.8042081682       13.1314675404       30.2428662165
  H         7.6073169084       13.6971999340       22.3067975631
  H         6.4184608035       12.5014818709       22.1878810541
  C         6.4885470522       13.6117935040       20.4520711985
  S         2.7465861928        5.6360977015       19.6286765495
  N         2.9668888218        6.1343707359       18.1359407876
  C         3.2239747964        8.3181568283       17.0255821528
  H         3.7692844034       10.4243666816       16.4582967433
  H         1.2601179980        8.2805335726       27.8947715829
  H         0.6506352899        8.6862395533       29.6218007719
  C         2.3497490443        9.9017215884       28.9670236331
  H        -1.1058414121        8.6787319509       26.8572840715
  H        -1.6174767659        8.6385068078       28.5116429690
  C        -2.6248388765       10.0628794615       27.4090815153
  H        -0.8374979346       11.0279164987       30.9025058347
  C        -1.1023659112       13.8693148372       31.4623973135
  H         6.0348341934       14.5766697581       20.2442195922
  H         5.6376725488       13.0015864672       20.0183906236
  C         7.7534991111       13.0948055030       19.7007910607
  C         3.2966219194        7.6023515131       15.7654907434
  H         2.7447272873       10.2749776134       27.9843223148
  H         2.1538101605       10.7159910315       29.6638851877
  C         3.4290671178        8.8835792892       29.5552247894
  H        -2.5215403749       10.7628811684       26.6508620605
  H        -2.9111316393       10.6436870363       28.3151082663
  C        -3.7700240793        9.0599441369       27.0555121553
  C        -1.1416711068       15.2873246638       31.6502748038
  C        -1.4649330612       13.1000290295       32.6657498394
  H         8.5583882829       13.7029671443       20.1521912630
  H         8.0127379268       12.0177218488       19.7951069746
  C         7.7035768710       13.5201803325       18.2636947908
  H         2.7402652166        6.6505822323       15.7383421844
  C         3.7505417202        7.9144701610       14.4861061242
  H         3.4847654432        8.1309580073       28.7976641834
  H         3.1114664108        8.4208558813       30.5234360998
  C         4.7910830818        9.5525348533       29.8788204969
  H        -3.4664106733        8.2942122661       26.2354278271
  H        -3.9312830943        8.4870993311       27.9595744188
  C        -5.0866530624        9.7875028454       26.7043090496
  N        -0.7650528173       16.1892600939       30.6254873979
  C        -1.5278307162       15.9384416205       32.7766346111
  C        -1.9305194206       13.7313799700       33.7798889611
  H        -1.3996186973       12.0035315760       32.6260417902
  H         7.9013497364       14.5952780939       18.1566750682
  H         8.3848494970       12.9405305925       17.6683971308
  H         6.7168615357       13.3201266917       17.8027213550
  S         4.4632731987        9.4289547635       13.9577591861
  C         3.7335634211        6.8846238461       13.4745546622
  H         5.1345879351       10.2192767704       29.1048381777
  H         4.7936294835       10.1711422018       30.8015240483
  C         5.9298640005        8.4746344580       29.9595847573
  H        -5.0914461648       10.6625781794       27.3373243894
  H        -5.8334920444        9.2683841457       27.2028278104
  C        -5.4532997275       10.1175548274       25.2121866730
  S        -0.9328566950       17.7522323019       31.2151453012
  N        -1.5589150793       17.3382685990       32.7056747600
  C        -1.9448718040       15.2149176246       33.9031418657
  H        -2.2032093518       13.1621472664       34.6661186984
  C         4.3840304378        8.7007335232       12.3511352429
  N         4.1118430812        7.4044187346       12.2454937085
  O         3.2957860413        5.7741102889       13.6807497282
  H         6.8842773214        9.0075748216       29.6906835757
  H         5.8832858683        7.6480218714       29.1904126271
  C         5.9852158578        7.8729858756       31.3668794958
  H        -4.6318167905       10.5845457537       24.6818213674
  H        -5.6579150429        9.1163148279       24.7301987919
  C        -6.7831931548       10.7822069009       25.0930834154
  C        -2.1744005879       16.0638016007       35.1028811094
  S         4.8386788945        9.4861533963       10.8505072088
  C         3.8886866469        6.6131329065       11.0280726811
  H         6.3549827505        8.6736751445       32.0030060893
  H         5.0706336142        7.5943065200       31.7676330219
  C         6.9252500787        6.6313764029       31.5630389325
  H        -6.8749789917       11.2607184630       24.1221604882
  H        -6.8485353388       11.5680797684       25.7482741411
  C        -7.9297534896        9.8142724599       25.3807282281
  H        -1.8360016900       17.0627885090       35.0006854988
  C        -2.6116888930       15.7212994856       36.3915268353
  H         4.6057719432        6.8839682985       10.2327989178
  H         4.0179085534        5.5064187379       11.1836094753
  C         2.4672825099        6.8252130263       10.4642664614
  H         7.0940427827        6.5082892026       32.6446679678
  H         7.9586429976        6.7446099594       31.1661835609
  C         6.3838664276        5.3520500138       30.8409840175
  H        -7.8708617208        8.9253508300       24.8185635566
  H        -7.9823113817        9.3814972659       26.3729902973
  C        -9.2714321549       10.3820750163       25.1295485668
  S        -3.2194031835       14.1835571932       36.8989531833
  C        -2.6569484648       16.8010266309       37.4605380014
  H         2.5272212859        7.6041521647        9.8302521012
  H         2.1384071766        6.0055945279        9.8149150581
  H         1.8081153468        7.0258621182       11.2709084412
  H         6.9940719308        4.4580816722       31.1002454725
  H         6.4050326453        5.5335398926       29.7758668519
  H         5.3309534688        5.0768309660       31.0582873616
  H        -9.5654873358       11.1597838222       25.8877240818
  H       -10.0844425726        9.6971234242       25.2315530785
  H        -9.3521515057       10.7230089437       24.0887287364
  C        -3.5500722199       14.9939451397       38.4651562473
  N        -3.4282204218       16.3396831228       38.4547655699
  O        -2.2872484675       17.9857051117       37.4102594254
  S        -4.5388025148       14.3669476331       39.7271775069
  C        -3.7466769830       17.3309529686       39.4472536056
  H        -4.1862918310       18.2960647327       39.0918631187
  H        -4.4250270129       17.0047076760       40.1673710605
  C        -2.5637211013       17.8614238559       40.3262598924
  H        -2.6405164932       17.4292845609       41.3413362659
  H        -1.5626747232       17.5862657349       39.9922004986
  H        -2.6256317430       18.9745322519       40.4940031868
