352
i=
  H         2.5930403798        3.6279616799       12.2228066609
  C         3.1635920030        2.6649161198       12.4590979321
  H         2.6185798789        2.0364772798       11.7411823645
  C         4.7262603100        2.7303810290       12.2467960084
  C         2.6963295749        2.3835291366       13.9031593372
  C         5.1283560983        2.9875449237       10.7904323176
  H         5.1164094795        1.7849248346       12.5904291824
  H         5.2424255027        3.5301347407       12.7820680073
  H         2.4696542682        1.3431172325       14.0394942607
  H         1.8043620169        2.9459532094       14.2324493538
  H         3.6150159888        2.7222170766       14.4006560586
  C         5.1192237645        1.6743669534       10.0136711240
  H         4.3384768937        3.6310891549       10.3498973962
  H         6.0947393682        3.5348081467       10.7906881945
  C         5.6487857935        1.7248523294        8.6459265231
  H         4.0963663476        1.2856146407        9.9416734740
  H         5.8460034683        0.9327157237       10.4550696084
  C         7.0165530429        2.3915519276        8.4279325317
  H         5.0146345623        2.3018289329        7.9426831862
  H         5.6779115846        0.7569533473        8.1816015249
  C         8.2335620338        1.7661855539        9.1708446727
  H         7.3174202884        2.3802086244        7.3621388512
  H         6.9594490230        3.5121589551        8.6338637134
  C         9.5242864437        2.6528854974        9.2729576811
  H         8.4030213022        0.7695836170        8.7274579702
  H         7.9092554581        1.6861768373       10.2118903017
  C         9.1438134379        4.0503355386        9.9312982073
  C         9.9619865610        3.3163708698        8.0264708995
  C        10.6412913892        1.8669464747       10.0933995939
  C         9.3803755740        5.1199618937        9.1008117689
  C         8.5179701399        4.4595966744       11.1028231317
  C         9.8365365784        4.6651404251        7.8783509728
  C        10.3919427239        2.6482230481        6.8771781041
  H        10.1565664494        1.3847872188       10.8961708907
  H        10.9711336091        1.1409532029        9.4091925615
  C        11.6927820531        2.8186700016       10.6365139706
  S         8.9889930193        6.6348088186        9.8406778333
  C         8.4929670852        5.8464232419       11.2519533673
  H         8.0314887669        3.7990557140       11.7022232300
  C        10.2225491925        5.2676702945        6.7109869465
  H        10.4212061505        1.5301186458        6.9813557608
  C        10.6796792518        3.2155503104        5.6786917012
  H        11.2156553844        3.4944447128       11.3471339865
  H        12.1316115565        3.3687434405        9.9440204029
  C        12.8034291309        2.0620479346       11.3995988843
  C         8.0510492277        6.4632843536       12.5258834511
  C        10.6622990467        4.5822120298        5.5609411916
  H        10.2254974127        6.3653584230        6.6302100003
  C        11.1160649635        2.8119423437        4.4211426654
  H        13.7652445439        2.6525573238       11.5540119585
  H        13.0984810751        1.3071859825       10.6742712695
  C        12.2715806575        1.5758823999       12.7911144291
  C         7.9109310878        7.8428296558       12.7540448183
  C         7.7633503568        5.5722305551       13.7195761612
  C        11.0449286127        5.2075255687        4.2647419905
  C        11.2945254956        3.8912229641        3.5819354102
  S        11.4440958633        1.3337349261        3.6774717387
  H        11.5260152748        0.8103951469       12.8156457189
  H        13.2271818289        1.0759940173       13.1367874965
  C        11.8107405745        2.6170074175       13.7883498385
  N         7.8902982256        8.7736375154       11.7063097739
  C         7.6422473574        8.4296405871       13.9952989610
  C         7.3734742210        6.2405814039       14.9310636094
  H         7.8783089578        4.5612587061       13.6911613486
  C        12.3751231953        6.0527445756        4.3758570438
  C         9.8466174398        5.9896662176        3.4960522867
  C        11.5879686753        3.4703902608        2.2915322104
  C        11.7428003114        2.1257566945        2.2373733818
  H        10.8680376065        2.9853281682       13.4485032555
  H        12.5243688143        3.5053146083       13.7507249398
  C        11.6823800847        2.1156431577       15.2450477825
  S         7.9197321749       10.2647030947       12.3334899246
  N         7.5745877489        9.8694753231       13.9147676332
  C         7.3088883917        7.7199901299       15.1334788589
  H         7.1256211376        5.5775778098       15.7686317622
  H        12.2613680571        7.0106181965        4.9280049587
  H        12.7544604677        6.3134933490        3.4587490816
  C        13.5475974266        5.2967697928        5.1149389319
  H         9.3995294905        6.6739317226        4.1368977937
  H        10.3972155905        6.6643272627        2.8246938000
  C         8.7740678380        5.1612983829        2.8474500649
  H        11.7155163693        4.1833564600        1.5161622014
  C        12.0988324500        1.3177717219        1.0321812181
  H        10.6860297010        2.3164297583       15.4806692765
  H        11.6732589455        1.0092783138       15.2256933329
  C        12.8500767599        2.6125588134       16.1245634255
  C         7.0065614644        8.3229983261       16.3484986876
  H        13.1712640436        4.8899765552        6.0373722701
  H        13.8517385381        4.5563672030        4.4311623169
  C        14.7966718266        6.0821033722        5.5383387548
  H         8.5244792607        4.2521375219        3.3460600830
  H         9.1295590952        4.8944619406        1.8542359961
  C         7.5701246767        5.9982435343        2.5400537028
  C        11.9753396900       -0.0701558981        0.8066765650
  C        12.3065131003        2.0531403387       -0.2748025199
  H        12.6385677373        3.6088652223       16.3542946619
  H        13.8816832029        2.5120820388       15.7074051693
  C        12.8609623792        1.7284791488       17.3881123829
  H         7.3477146453        9.3266858212       16.2703364951
  C         6.6228449581        7.9327115011       17.6315106054
  H        14.5074963066        6.9577881721        6.1084798096
  H        15.3415495238        6.5357121214        4.7292283477
  C        15.8969180150        5.1791346714        6.2873148441
  H         7.0429931573        6.3839245274        3.4696548616
  H         7.9751909026        6.8720604146        2.0084618019
  C         6.5640832918        5.3787957302        1.6063845992
  N        11.6195686429       -0.9450755278        1.8467311776
  C        12.3395921010       -0.7566828713       -0.3103476352
  C        12.6290007455        1.3863739904       -1.4273528009
  H        12.3786216862        3.1250025615       -0.2870852391
  H        13.1426275759        2.2995061634       18.2785455219
  H        13.5231010044        0.8221480308       17.3357893080
  H        11.8690926837        1.3061262152       17.6694159391
  S         6.3303622388        6.3192796062       18.1857573935
  C         6.5913400552        8.9549602945       18.6615069806
  H        15.4743927720        4.8497682191        7.2776937095
  H        16.2199198258        4.3281911235        5.6283651697
  C        17.0790087384        5.9962977068        6.4999899166
  H         6.1758253821        4.3331962745        1.9136997398
  H         7.0211644183        5.2150903461        0.6604590319
  C         5.1501505492        6.0829999276        1.4030577848
  S        11.9594006481       -2.4802489387        1.4187014100
  N        12.3834855135       -2.1598726713       -0.1425590832
  C        12.7002187114       -0.1240668398       -1.5072428340
  H        12.8428135445        1.9541087194       -2.3007353575
  C         6.1288240252        7.0456390913       19.7708254124
  N         6.2675298697        8.4280993275       19.8516173124
  O         6.9945028917       10.0840842614       18.4395382908
  H        17.4445716295        6.3832243148        5.5669098207
  H        16.8404229152        6.7644341002        7.1876756818
  C        18.1326487498        5.1132406977        7.2640714132
  H         4.4453618309        5.4191342971        0.8162094045
  H         4.7428359190        6.1024817414        2.3808695752
  C         5.1176837168        7.5052453825        0.7079318627
  C        13.0478431950       -0.8524026030       -2.6475481533
  S         5.7032669155        6.1848933862       21.2442360589
  C         6.3054243415        9.1879962018       21.1237462941
  H        17.7510631926        4.9377529520        8.2809990872
  H        18.2014732796        4.0612455226        6.8467949545
  C        19.6439839616        5.5535132779        7.1390368715
  H         4.8985402197        7.3607039162       -0.3253560126
  H         6.1179694695        7.9638787161        0.7056138611
  C         4.0471147811        8.5136222021        1.2756721978
  H        12.7648876559       -1.9143258321       -2.5722176447
  C        13.4316845766       -0.5542996830       -3.9545624195
  H         5.5461491445        8.9159927682       21.8109944588
  H         6.2215266671       10.3141118987       20.9804320536
  C         7.6601796763        8.9028689291       21.9130035026
  H        20.2412148312        4.9938375410        7.8811208757
  H        19.7006954732        6.6028956929        7.3630890997
  C        20.1938287224        5.3604147867        5.7474179935
  H         3.8560571119        9.3066860478        0.4888126633
  H         3.0780875480        7.9694196766        1.4259832271
  C         4.5192190527        9.1817934664        2.5794200457
  S        13.8669705355        1.0074011642       -4.7512982972
  C        13.5084034171       -1.6627912655       -4.8838625767
  H         8.0230951492        7.8672611492       21.9423954451
  H         7.6314062827        9.2057565524       22.9229979659
  H         8.5598489903        9.4413010937       21.5956975458
  H        19.4117403689        5.1670061418        5.0314798591
  H        20.7804691524        6.2159492978        5.4366684924
  H        20.8615890786        4.4551683717        5.7719981620
  H         3.7692724709        9.6720144330        3.1183219732
  H         4.9560570161        8.4530619228        3.2913997550
  H         5.1511352808       10.0117670497        2.4854000425
  C        14.0271059999        0.0798997033       -6.2511057778
  N        13.8881050788       -1.2227572775       -6.1105719630
  O        13.1344226321       -2.7978784403       -4.6827303176
  S        14.5724641830        0.9150606299       -7.7299197136
  C        13.7030956345       -2.0644872079       -7.2651557178
  H        13.7302670512       -3.1856180806       -7.1504789188
  H        14.5124496493       -1.8561063731       -7.9747503409
  C        12.4379440678       -1.6938598923       -7.9926376516
  H        11.7060491883       -1.2558664407       -7.2732604202
  H        11.9624772623       -2.6309842790       -8.2582075614
  H        12.7002101698       -1.0451351966       -8.8997462940
  H        -3.9258204715       14.4346649127       16.5258561469
  C        -3.3473426882       13.5708918080       16.3286149432
  H        -4.0131476588       12.7165842452       16.3253124935
  C        -2.2236805325       13.3669002597       17.4723878125
  C        -2.7226888317       13.7213081095       14.9364895542
  C        -2.7881867402       13.4625127932       18.8601648907
  H        -1.7613370599       12.4116666371       17.3529771045
  H        -1.3370176831       14.0306164038       17.3330930495
  H        -1.7598826323       14.2525334731       15.0331837424
  H        -2.4114391991       12.7034637269       14.5107117143
  H        -3.3481905249       14.2023940011       14.1622857263
  C        -1.6764687265       13.5234168437       19.9625093081
  H        -3.3342622496       12.5938607311       19.1148898665
  H        -3.3217706125       14.4022163290       18.9186683002
  C        -2.0752424989       13.5337619996       21.4695085311
  H        -0.8985760376       12.7039896600       19.7468758828
  H        -1.0602435128       14.3467566059       19.7730339580
  C        -1.1571147613       12.8593848760       22.4011093529
  H        -3.0415135813       12.9752556009       21.4768841743
  H        -2.3508688596       14.5418190759       21.9247370353
  C         0.0383854084       13.7274303632       22.7605197465
  H        -1.6081966102       12.5305813734       23.3030715284
  H        -0.8542946019       11.9316838537       21.9420104933
  C         1.2273802212       12.9451439400       23.3748085683
  H         0.5180339946       14.1215850658       21.8923089661
  H        -0.3347548866       14.4792354833       23.4698499315
  C         1.5133185240       11.7009071584       22.6277362597
  C         0.7626126869       12.2752323587       24.6384767166
  C         2.4945014714       13.8325105053       23.4607614774
  C         1.2412727925       10.5778486593       23.3971953011
  C         2.0390381919       11.3885973370       21.3736830634
  C         0.7441197413       10.9092238994       24.6606493869
  C         0.3819181633       12.8614578385       25.8210038305
  H         2.8063460044       14.3244316156       22.5493609537
  H         2.2905296758       14.7256377892       24.0489753449
  C         3.5923098348       13.0847993311       24.0649632427
  S         1.5230034986        9.1625223864       22.5422733857
  C         2.1331852438        9.9915220415       21.2191499565
  H         2.2634805614       12.1715544121       20.7174703938
  C         0.4076597448       10.2942737949       25.8391185559
  H         0.4102062484       13.9997847686       25.7467838628
  C        -0.0339573738       12.2883933157       26.9647580831
  H         3.9300965424       12.4868682219       23.2015888608
  H         3.3599969119       12.4857703025       24.9544432312
  C         4.7248717684       13.9701846042       24.5282422217
  C         2.4486015560        9.2010765086       19.9893964730
  C         0.0335906297       10.9289035834       27.0370852276
  H         0.2790648321        9.2312144910       25.7556435360
  C        -0.5184882591       12.6823482216       28.1889682050
  H         5.3036315405       13.3136477382       25.1671218869
  H         4.4449171702       14.8327801999       25.0857352865
  C         5.6581633997       14.4904293021       23.3896156536
  C         2.5375898470        7.8048928508       19.8410543096
  C         2.7992768097        9.9896371810       18.7648260300
  C        -0.3785383500       10.2203804835       28.2921932048
  C        -0.7415149974       11.5691194588       28.9427942472
  S        -0.8392211900       14.2220036584       28.8923393603
  H         6.5151106410       14.8838564283       23.9989666679
  H         5.1418790305       15.2763889339       22.7730780939
  C         6.3416877924       13.4622839942       22.4906766775
  N         2.1978431783        6.8476859588       20.8108002903
  C         2.8483203277        7.1961510417       18.6320279258
  C         3.2436072507        9.4261451150       17.5777220727
  H         2.9121682133       11.0312404951       18.9039328979
  C         0.9565363380        9.5954963488       28.9246896363
  C        -1.5573859356        9.1808946135       28.0679645286
  C        -1.1167222747       11.9989890636       30.1921827402
  C        -1.1046280623       13.3435361870       30.3700702720
  H         7.4115210628       13.5163481908       22.7473850723
  H         5.9548410630       12.4524550560       22.7941105983
  C         6.2919020293       13.6588874852       20.8720820561
  S         2.4460258273        5.3344254992       20.1539929132
  N         2.7226069672        5.8054697021       18.6299919638
  C         3.2033483993        7.9533203753       17.4924238014
  H         3.6261514540       10.0430376117       16.7360889654
  H         1.6857936652        9.1651239075       28.2289482569
  H         0.6607379564        8.8353163830       29.6539640221
  C         1.6772022025       10.5308218365       29.7943427765
  H        -1.2623761001        8.2905044120       27.4967396442
  H        -1.7714984149        8.8183814205       29.0725650353
  C        -2.8571275807        9.8471139170       27.5327120890
  H        -1.4466416794       11.3533742302       30.9528183116
  C        -1.3598821857       14.0862580550       31.5640334681
  H         6.2493968316       14.7316956463       20.6104617055
  H         5.4046394202       13.2018939213       20.5515636923
  C         7.5416903662       12.9357658001       20.2150679473
  C         3.6243200674        7.2550786598       16.2957102394
  H         1.8402329010       11.4484113489       29.2492009528
  H         1.0736424363       10.6917909016       30.6683429572
  C         2.9983678059        9.9421261652       30.2786057041
  H        -2.5774347896       10.4489173185       26.6705773946
  H        -3.2520350647       10.6350375723       28.2794289521
  C        -4.1274332201        8.8935562322       27.3601474167
  C        -1.4747407530       15.4931913668       31.7126061990
  C        -1.4455601493       13.2660418609       32.8189537001
  H         8.4919215520       13.3594230906       20.5605009902
  H         7.5903466001       11.8503488322       20.3840969715
  C         7.5700688960       13.2897108634       18.6944076769
  H         3.7475517703        6.2020814690       16.5368271926
  C         3.8896852419        7.5926109848       14.9890987253
  H         3.4661121538        9.3309621275       29.4767082624
  H         2.6678947999        9.2496376024       31.0967852299
  C         4.1046899301       10.8956870030       30.8635747539
  H        -3.9676430335        7.9535073752       26.8142410136
  H        -4.3817841051        8.4828333484       28.4124352497
  C        -5.4517116591        9.5838292197       26.8624527540
  N        -1.1282124688       16.4383709223       30.7904723684
  C        -1.7111177507       16.0269603991       32.9440592684
  C        -1.7822140281       13.8728178326       34.0708717322
  H        -1.2260074677       12.1940339392       32.7946454121
  H         8.1594683453       12.5739771959       18.2011148074
  H         6.5842986155       13.0881295213       18.4425290777
  H         7.8103764948       14.3186468498       18.3846919634
  S         3.9901155585        9.1637185367       14.3655701067
  C         4.0535808498        6.5393660838       14.0169391943
  H         4.0407558447       11.7579627892       30.2317869086
  H         3.7931356081       11.2613731008       31.8001588488
  C         5.5690762441       10.3901240967       30.8868763450
  H        -5.7614661259       10.4002640956       27.5657000481
  H        -6.2721451751        8.8599615579       26.9233553139
  C        -5.3754340506       10.2579044065       25.4645234376
  S        -1.1168136683       17.9180885676       31.4701491826
  N        -1.5145054948       17.4123910051       32.9523271426
  C        -1.9422911026       15.3528476326       34.1160241921
  H        -1.7967204690       13.2579065843       34.9144118010
  C         4.2671054371        8.5099442095       12.7685302374
  N         4.3175751257        7.1323605273       12.8129919131
  O         4.0742046119        5.2914305109       14.3035966554
  H         6.1140330074       11.0190457749       31.6236566267
  H         6.0646009919       10.5180875979       29.9486398051
  C         5.8191687872        8.9528685283       31.3628187748
  H        -4.5799456629       10.9677771574       25.4445100602
  H        -5.2184699269        9.4930909703       24.6713742803
  C        -6.7045096038       11.0141654662       25.2219660043
  C        -2.0943756184       16.0966623424       35.2966685385
  S         4.6125844056        9.5055278524       11.3448552978
  C         4.4351875887        6.4574459420       11.5829166261
  H         6.5030074146        8.8798575511       32.1841156165
  H         4.9341013768        8.5605662535       31.8659693365
  C         6.3072434166        7.9786051961       30.2656416076
  H        -6.6351849839       11.7643887079       24.4033536217
  H        -6.9814889804       11.5014339099       26.0983033512
  C        -7.7961061373       10.0075757098       24.8713200223
  H        -1.8626724181       17.2073243150       35.2897445975
  C        -2.6178342452       15.6780035322       36.5012244957
  H         5.1901282091        6.9587304669       10.9116641500
  H         4.6802692191        5.4176810693       11.7732007956
  C         2.9908574232        6.5066463986       10.9886049675
  H         7.2486576176        8.3281254444       29.8455444667
  H         5.6583821379        7.8318612076       29.3813369393
  C         6.6991780994        6.6176634316       30.8789362699
  H        -8.0641978494        9.8674171268       23.8354797350
  H        -7.5224070004        9.0483567317       25.1828098073
  C        -9.1191491373       10.2753831678       25.5453202698
  S        -3.1232095696       14.0315455736       36.9243529480
  C        -2.6326837717       16.6515015120       37.6342278172
  H         2.8326644591        5.7350644514       10.2831120539
  H         2.2288632170        6.3865433289       11.8133380631
  H         2.8757271289        7.4726833486       10.4452790651
  H         7.5482686683        6.7971948680       31.4748037539
  H         6.8115630547        5.8481529923       30.0561450749
  H         5.8577609670        6.3527230723       31.5032841555
  H        -9.9023202350        9.9279247543       24.9415768889
  H        -9.2711588250       11.3297180607       25.8086097539
  H        -9.2784963752        9.6952388106       26.4656286176
  C        -3.5067341839       14.7893349189       38.5189912225
  N        -3.2235385194       16.0787505059       38.7002712418
  O        -2.1642846537       17.8117706195       37.5311135232
  S        -4.3386333958       13.7187915469       39.7305894277
  C        -3.4287365986       16.8004523769       39.9457129072
  H        -3.6120896371       17.8439700868       39.8212309227
  H        -4.3691133559       16.4783223210       40.4367981724
  C        -2.2614214145       16.4793135706       40.8449440525
  H        -1.4244866196       17.1634228166       40.7564074022
  H        -2.5132204864       16.3841409613       41.8515804868
  H        -1.9279601719       15.4690064581       40.4933829753
