352
i=
  H         2.9704830634        3.5925629255       12.6285513232
  C         2.9860523420        2.5041819938       12.7459519736
  H         2.1180510971        2.3377078789       13.3651305919
  C         2.5994018563        1.9292061991       11.2935076374
  C         4.1873798025        1.9283187950       13.4623480345
  C         3.6961654027        2.4823617066       10.2428548073
  H         1.6079542147        2.2440281227       11.0454787207
  H         2.5988101208        0.8567272567       11.3347036704
  H         4.4871287227        1.0459926075       12.8908094236
  H         3.9274785821        1.5624461193       14.4076102072
  H         5.0284763650        2.5724086902       13.5327864135
  C         4.4812761050        1.3122962979        9.6871287446
  H         3.0871290738        2.8923304576        9.4428895421
  H         4.3078693302        3.2907404417       10.6249693606
  C         5.0844594799        1.6884367421        8.3679227714
  H         3.7216755591        0.5538426223        9.4918983245
  H         5.1507826466        0.8792054380       10.4774671739
  C         6.2499056110        2.6338361421        8.5058107098
  H         4.3388772182        2.2687217544        7.8354351902
  H         5.2845060024        0.8198734848        7.7058810306
  C         7.5638984211        2.0153234968        9.0149511019
  H         6.4286524285        3.2332594446        7.6032229474
  H         5.9406222462        3.2846121787        9.3063389892
  C         8.7688896072        2.8371214523        9.2151354527
  H         7.7257391861        1.2772146508        8.2559032305
  H         7.3694398256        1.5462750380        9.9199045403
  C         8.3988731957        4.2001278183        9.9121452373
  C         9.2701698208        3.5720804244        8.0289345902
  C         9.9714376198        2.0789824506        9.9227748990
  C         8.7257398103        5.2982375224        9.1291155316
  C         7.8275161641        4.6362635583       11.1491435484
  C         9.2616431103        4.9347905275        7.9503667167
  C         9.8224166603        2.9368368423        6.9018833150
  H         9.6237336716        1.6142877649       10.8104588652
  H        10.3294154804        1.2945915572        9.2420884470
  C        11.0912635989        2.9755209937       10.1646198267
  S         8.3115537365        6.8406010674        9.8337144863
  C         7.7936172416        5.9932962369       11.2781295338
  H         7.6573981007        3.9138942037       11.8044988010
  C         9.7911731085        5.5489721229        6.8028299647
  H         9.9500661466        1.8636204631        7.0524418948
  C        10.3421663475        3.5028502054        5.7640823314
  H        10.7693170423        3.9495746230       10.5103360442
  H        11.6243747042        3.2175431022        9.2817779043
  C        12.0860049212        2.3926248642       11.1067906827
  C         7.4603515313        6.7369578149       12.5449073813
  C        10.2678988961        4.8626788037        5.6444745243
  H         9.8960881720        6.5953724870        6.7313695448
  C        10.7064086084        3.0083906701        4.5011167944
  H        13.0952139020        2.8203567130       10.8478299108
  H        12.0881374480        1.3406794659       11.0493328265
  C        11.6801467017        2.7419688920       12.5809664676
  C         7.4490056747        8.1450965019       12.6800460917
  C         7.1430192911        5.9499414719       13.7657198805
  C        10.7353104612        5.4648312405        4.3663308426
  C        11.0017118533        4.0970529015        3.7312552534
  S        10.8465576470        1.4592804956        3.7460145433
  H        11.8472407842        3.7749049917       12.7378601023
  H        10.5804573657        2.6894209411       12.6814785627
  C        12.1766151520        1.7909088210       13.5881828190
  N         7.6106144622        9.0512440530       11.6228040086
  C         7.2966554191        8.7385033890       13.9228233772
  C         6.9422870083        6.5639102047       14.9808103957
  H         6.9108048970        4.9175145594       13.6886661659
  C        11.9256005063        6.3621109215        4.5774288378
  C         9.4754324577        6.1668082650        3.7678627363
  C        11.4234508778        3.6556873252        2.4657982075
  C        11.4139287001        2.2734911215        2.3508777361
  H        13.2408375806        1.9210885177       13.4632420834
  H        11.9117555649        0.7973838096       13.2128135920
  C        11.8208896954        2.1435298303       14.9955191979
  S         7.6724378368       10.5525200407       12.2913749264
  N         7.2890947500       10.0904397270       13.8390262903
  C         7.0837894469        8.0382315851       15.1452164391
  H         6.5758215018        5.9842073626       15.8139165006
  H        11.6907339080        7.1227813857        5.3707536780
  H        12.0480491049        6.9630382874        3.6981132886
  C        13.2830490073        5.6517108226        4.9087799520
  H         9.2417478792        7.1078010772        4.2964006228
  H         9.8678536709        6.5792844480        2.8164573932
  C         8.2554963882        5.2419320200        3.4846467203
  H        11.8086735167        4.2840995573        1.7270024176
  C        11.6668668039        1.5140123059        1.0841177611
  H        11.2850847333        3.0650590604       15.0799947678
  H        10.9845167565        1.4853057592       15.3247893256
  C        12.9630031786        2.1262102892       15.9897433431
  C         6.8059449417        8.7082520280       16.3841182538
  H        13.1161808551        5.4325753219        5.9741145307
  H        13.4388932971        4.6974370155        4.4525729267
  C        14.4803614635        6.5916080660        4.8197916918
  H         7.8670298184        4.7286163784        4.3447273800
  H         8.5325457221        4.4537647096        2.7411003947
  C         7.0415777624        5.9770067622        2.9790962919
  C        11.8358120203        0.1307539192        0.9853369500
  C        11.9735609877        2.2322885224       -0.1680136755
  H        13.7754814208        2.7713881314       15.6431069088
  H        13.3645807405        1.0993260208       15.9024047901
  C        12.5916615940        2.5265678882       17.4299753738
  H         6.8824995602        9.7361594172       16.4426799970
  C         6.4877513273        8.2645977337       17.6538143559
  H        14.1653324770        7.6398507936        4.8390526993
  H        15.0281278868        6.3635707650        3.9303581277
  C        15.5873149683        6.2231584926        5.7937266106
  H         6.2686135478        5.1628968878        2.7763012650
  H         6.5569602325        6.3881218657        3.8728984985
  C         7.3354029288        6.9751712817        1.8244423445
  N        11.6766807080       -0.7663203755        2.0229501303
  C        12.1435684426       -0.5469393701       -0.1898740376
  C        12.3789926205        1.6348396339       -1.3288353318
  H        12.0692497523        3.3473970969       -0.1306338051
  H        13.3589607807        2.2036567175       18.1196798092
  H        11.7071078274        2.0164922559       17.7204273275
  H        12.5049638972        3.5701855091       17.5575311016
  S         6.1861861219        6.6666711729       18.2097465707
  C         6.3062864346        9.3605775684       18.6264691553
  H        16.3031982542        7.0489249916        5.8122744739
  H        15.1789680196        6.1558881438        6.8508617168
  C        16.3047561202        4.9458743120        5.5093096216
  H         8.1122058022        6.5465305075        1.2440742146
  H         7.7278502004        7.9037086161        2.1685158798
  C         6.0722781108        7.1884772331        0.9646289651
  S        11.9222361454       -2.2790109010        1.5015800229
  N        12.1566794950       -1.9026361563       -0.0691290744
  C        12.5329737797        0.1856945007       -1.3737302394
  H        12.6588861443        2.2323001054       -2.1613003176
  C         5.8955032934        7.4351057035       19.7749228738
  N         5.9313813358        8.7870102583       19.7378383232
  O         6.5129005166       10.5238819313       18.4200008056
  H        15.5989547555        4.2500054606        5.1606731537
  H        16.9669471833        5.1474799185        4.6704018150
  C        17.1113917654        4.4927171678        6.7606680424
  H         6.4218841692        7.8747497014        0.2365946229
  H         5.7209249476        6.3460597650        0.4196212207
  C         4.9713521426        7.8953549325        1.7661749924
  C        12.7804329041       -0.5645261156       -2.5580617052
  S         5.6383783329        6.7019007326       21.3470089121
  C         5.8406123630        9.6745161820       20.8483994315
  H        16.4301111874        4.2000212563        7.5460580810
  H        17.5941132110        3.5181226124        6.4877544648
  C        18.2209396571        5.3128752335        7.2529205285
  H         5.4925935927        8.3634375762        2.6597608501
  H         4.3253119945        7.2025504409        2.2237695110
  C         4.2411518544        8.9942026859        1.0070905004
  H        12.5553293602       -1.6530892842       -2.3828323124
  C        13.1522844859       -0.3074713502       -3.9081175917
  H         5.0034415180        9.2854915371       21.3812059197
  H         5.4134892648       10.6144726251       20.6472591741
  C         7.1461007411        9.7285914274       21.6417338186
  H        18.7032132371        4.8414723971        8.0654914468
  H        17.8487875586        6.2464987902        7.5847949049
  C        19.2545189019        5.5393275594        6.1350373889
  H         4.9652502558        9.6797521281        0.5119062880
  H         3.6567054683        8.6244941450        0.1858468108
  C         3.5108800472        9.8541690142        1.9288354963
  S        13.5583063944        1.2837840861       -4.5055695137
  C        13.2586035258       -1.4564499280       -4.8855805586
  H         7.9996782858        9.9924232304       21.0712912435
  H         7.2998373963        8.7556014927       22.1488027667
  H         7.0611456491       10.4403725581       22.4213049778
  H        18.8992188593        6.2431295877        5.4961289691
  H        20.0288213427        6.0942816279        6.5612012309
  H        19.6178724849        4.7260040838        5.5000963380
  H         2.7261492459        9.2128957286        2.3912445417
  H         4.2022217757       10.1850052125        2.7174830765
  H         3.0530102927       10.7372921489        1.5528279273
  C        13.9556072228        0.3931681219       -6.0500827866
  N        13.7587786138       -0.9475703862       -6.0143288509
  O        13.0049060396       -2.6035419892       -4.6132343357
  S        14.7387261541        1.2279182716       -7.3742711236
  C        13.8837780919       -1.7704690917       -7.2740628396
  H        14.0869463972       -2.7261770367       -6.8754264116
  H        14.6743449231       -1.5302946683       -8.0002752177
  C        12.4931606179       -1.7612950784       -7.9735459051
  H        12.3000744020       -0.8750852275       -8.4584403679
  H        11.6866224935       -1.9421759566       -7.2048634873
  H        12.3812103337       -2.6505945106       -8.6208295541
  H        -2.5781233143       12.0024243221       16.9732657133
  C        -2.5623286624       12.9649720336       16.4888824626
  H        -1.5211441309       13.3528410597       16.3199918707
  C        -3.3256384768       13.8499954915       17.5206988190
  C        -3.3353620241       12.8816400687       15.1114153269
  C        -3.4347164851       13.3077658120       18.9767179147
  H        -2.9117478288       14.8466522259       17.5580597904
  H        -4.3555342938       13.9974495963       17.1421318917
  H        -2.7501334896       12.1645216238       14.4865428172
  H        -4.4079995065       12.5456824345       15.1518950273
  H        -3.3575430571       13.8582100874       14.5583980195
  C        -2.2714973443       13.3178792069       19.9371517049
  H        -3.8258295032       12.2847335980       19.0710514167
  H        -4.1840243718       14.0623042402       19.3766204534
  C        -2.6975762557       13.1373762309       21.3887336046
  H        -1.5206602677       12.5639560292       19.6693865198
  H        -1.6801436323       14.1831969261       19.8083016790
  C        -1.6633238275       12.5285830127       22.2333681825
  H        -3.6426955707       12.5464720433       21.3441943362
  H        -3.0053909546       14.1286949311       21.8610759797
  C        -0.5096063999       13.4729724938       22.6966423928
  H        -2.0605896487       12.0410420572       23.0999800327
  H        -1.1975249233       11.8085237992       21.6395868659
  C         0.6405801438       12.8473753805       23.4715992596
  H        -0.0064176050       14.0153437918       21.9025297141
  H        -0.9714135538       14.3398352198       23.3203031984
  C         1.1692627252       11.5816068476       22.8577337906
  C         0.1604308242       12.1661291449       24.7110215662
  C         1.7681531771       13.8869964562       23.8613551960
  C         1.0515822937       10.4905476152       23.7028333546
  C         1.6564810649       11.2511074948       21.5707473996
  C         0.2891772788       10.8473020565       24.8470820033
  C        -0.3571170429       12.7449901056       25.8501160978
  H         2.0186293621       14.3622150215       22.8968532440
  H         1.4866766484       14.6802893835       24.6037631709
  C         3.0709916167       13.1981006488       24.4198185319
  S         1.5206426586        9.0234162053       22.9553884622
  C         1.8807955115        9.8781261337       21.5407728811
  H         1.8045314620       12.0357480492       20.8754376792
  C        -0.1410100743       10.1631912455       25.9270826410
  H        -0.4184437316       13.8601878086       25.9050190686
  C        -0.7109344573       12.0730379759       26.9952946906
  H         3.4481785801       12.4354150756       23.6974281472
  H         2.8941229037       12.6073301117       25.3350774903
  C         4.1814060445       14.1441707029       24.6635789532
  C         2.3157892003        9.1463610546       20.2847876807
  C        -0.7042033962       10.7367196846       27.0825102264
  H         0.1503488395        9.1466753325       25.8706142425
  C        -1.1157704652       12.4998125640       28.1923481943
  H         4.9754915230       13.7065539258       25.3163087263
  H         3.8647442474       14.9767181347       25.2806899700
  C         4.7375977849       14.7117760803       23.3913750026
  C         2.4494726498        7.7495435918       20.0210248233
  C         2.4285746106        9.9207895103       19.0118710952
  C        -1.1190437286       10.0801755524       28.3794053936
  C        -1.3441024868       11.4641015368       29.0107792324
  S        -1.3797975297       14.0253271753       28.8913641318
  H         5.0948396761       15.7454736282       23.6079444820
  H         4.0275490664       14.8620132737       22.5759732031
  C         5.7865640975       13.8031401375       22.7290421263
  N         2.2505442889        6.8351826167       21.0671654689
  C         2.7862736603        7.1617155617       18.8250917108
  C         2.7710492925        9.3743028826       17.7753513940
  H         2.5787967328       10.9535905824       19.0668888662
  C         0.0931760902        9.3354600748       29.0628051022
  C        -2.4231217483        9.2559363530       28.1159809414
  C        -1.7609705519       11.8916040374       30.2746328363
  C        -1.8561752111       13.2649489540       30.3279501707
  H         6.8007814557       13.9829550271       23.0452706552
  H         5.6716689108       12.7598811061       23.0387721598
  C         5.7513819337       13.9749122957       21.2132100877
  S         2.3146688323        5.3799289145       20.4742409929
  N         2.8095385251        5.8162630638       18.9271824596
  C         2.9554777224        7.8973606224       17.5851727712
  H         2.9391424237       10.0521331034       16.9891467749
  H         0.4144900295        8.5677084329       28.2796091882
  H        -0.1335777394        8.6034008029       29.8937901233
  C         1.2816323993       10.1824175929       29.4705677418
  H        -2.1570730259        8.5914848006       27.3672215569
  H        -2.6597537870        8.6771125687       28.9824590513
  C        -3.6529937797       10.0855272439       27.6948983442
  H        -1.9800013014       11.2205106553       31.0522997717
  C        -2.1174052898       14.0644076575       31.5840338711
  H         5.3441830274       14.9809796500       20.9704330110
  H         4.9798597064       13.3612713766       20.7611735619
  C         7.0142528691       13.5914805447       20.5537936582
  C         3.2789112557        7.1900945387       16.3999871682
  H         1.4242868811       11.0683385059       28.8303945127
  H         0.9931016886       10.7389037692       30.3557257571
  C         2.5980464389        9.5286743477       29.8972252015
  H        -3.2344248039       10.6826706956       26.8470885463
  H        -3.8890878558       10.7247480276       28.5591672885
  C        -4.8050352744        9.1635814703       27.3855758790
  C        -2.1022354281       15.4392921333       31.7045555079
  C        -2.3986600183       13.2727965797       32.8510721727
  H         7.8793196018       14.1237568098       20.9791820989
  H         7.0704921654       12.5282697495       20.7546436282
  C         7.0501216053       13.7930258119       19.0633643311
  H         3.1925984130        6.1182822863       16.5710530275
  C         3.5777474189        7.6191240500       15.1888894420
  H         3.0613211408        9.3615006121       28.9187713397
  H         2.5514277672        8.5323428100       30.3651299770
  C         3.5861051756       10.5083410175       30.5476233162
  H        -4.4758542332        8.4255604101       26.6607772596
  H        -5.0529250034        8.4759657771       28.2146892209
  C        -6.0003452296       10.0717820249       26.9380328558
  N        -1.8638966902       16.3581916389       30.6771475205
  C        -2.4132731318       16.0817410133       32.8912397168
  C        -2.6124905658       13.9379656183       34.0260936888
  H        -2.4833815670       12.2638853692       32.9200829210
  H         8.0891183422       14.1732547473       18.8520248895
  H         6.7206136552       13.0236454512       18.4096224097
  H         6.3723091109       14.6766995290       18.8139361639
  S         3.6420782599        9.2532996378       14.6596505814
  C         3.7807321987        6.5800613556       14.1831335816
  H         3.5052638099       11.4815158703       30.1119667605
  H         3.3775034555       10.7054677405       31.6314961679
  C         4.9814983207        9.9693077462       30.5568233354
  H        -6.2253716696       10.9332109290       27.5494511151
  H        -6.7846226393        9.3755224747       26.9199404768
  C        -5.8779501881       10.7444161111       25.6029599252
  S        -1.8027792397       17.8595695592       31.2637515595
  N        -2.2319818860       17.4591241147       32.7874071176
  C        -2.7153438866       15.4082564430       34.0758459716
  H        -2.9267213872       13.4158008830       34.8605085072
  C         4.0021716179        8.6090457801       13.0511144320
  N         4.0899284575        7.1893966077       13.0405735749
  O         3.8113050599        5.3638644203       14.3849291441
  H         5.5709975891       10.6831713803       31.0204286322
  H         5.3958211127        9.7786242765       29.5497580828
  C         5.1472662648        8.7501907541       31.4533298664
  H        -5.1418553015       11.5113712364       25.4660642311
  H        -5.4251365092        9.9700208079       24.9339080636
  C        -7.2434754892       11.3202362895       25.2441710341
  C        -2.9848127007       16.1941788421       35.2311803552
  S         4.0953474001        9.5119325109       11.5818985814
  C         3.8810552342        6.5053002283       11.7448601941
  H         5.8936044826        8.9815955988       32.1884129527
  H         4.2483005830        8.4888580772       32.0363291844
  C         5.7128792809        7.6126308650       30.6461218041
  H        -7.0650525478       12.0387374751       24.4349889710
  H        -7.5892781521       11.9644290396       26.0552030156
  C        -8.3696312078       10.3069910523       24.8193414516
  H        -2.7213721900       17.2514088661       35.1547741937
  C        -3.5734161819       15.9622139041       36.4295770877
  H         4.4986380407        6.9867324952       11.0253439855
  H         4.2977400884        5.5009996571       11.7598840225
  C         2.3094584716        6.4688321270       11.3734300267
  H         6.6329966901        7.9121840001       30.0793031533
  H         4.9131231205        7.3789704504       29.9738027704
  C         5.9592456070        6.3282162688       31.4864968000
  H        -8.6869368881       10.4619782517       23.7763050326
  H        -7.9276555106        9.3392206640       24.7780035617
  C        -9.6194307419       10.1448311285       25.6977381610
  S        -4.2390161681       14.4999990025       37.0366406900
  C        -3.6765741209       17.0873563591       37.3799573650
  H         1.5941858542        6.2872750051       12.2345658306
  H         1.9930254917        7.5044551376       11.0776182666
  H         2.1740567205        5.7274528756       10.5206384594
  H         6.9365673115        6.3707695071       31.9668800436
  H         6.0490508889        5.4567859416       30.8342637045
  H         5.1566588164        6.1532226693       32.1136865769
  H       -10.0041747472       11.1220223883       26.0019162810
  H        -9.4506033940        9.6151171657       26.6205032425
  H       -10.4739774762        9.6027178556       25.2996483180
  C        -4.5113648322       15.3872448397       38.5619058170
  N        -4.3042850658       16.6954507124       38.4978878839
  O        -3.4337183199       18.2798157356       37.0720550499
  S        -5.2597284049       14.7040339933       40.0207306169
  C        -4.2341467229       17.4968881291       39.7025160711
  H        -4.2752546700       18.5895302169       39.5009932008
  H        -5.0930375720       17.2399791741       40.2990688844
  C        -2.8889869046       17.3028542610       40.4679994190
  H        -2.5200033054       18.1136377319       41.0913749285
  H        -2.9528458579       16.5760037219       41.2035421367
  H        -2.0632382618       17.0866123619       39.8083259552
