352
i=
  H         4.4673548554        1.0936583387       12.2001871563
  C         4.0047083669        2.0176846974       12.5610323155
  H         4.7881049087        2.7159043275       12.6434114890
  C         2.9905285430        2.3636473092       11.4897258069
  C         3.3401585610        1.8439018638       13.8952092734
  C         3.6163949126        2.8727809364       10.1751882200
  H         2.3528415330        3.1910042066       11.8225866244
  H         2.3156573182        1.5189872298       11.2206983166
  H         4.1381505770        1.9677028587       14.6140060966
  H         2.8680023009        0.8162514055       13.9893538399
  H         2.4950505557        2.5751677125       14.0643057005
  C         4.5407407744        1.8030354657        9.4662127109
  H         2.7539034630        3.1828263061        9.6330678660
  H         4.1932209563        3.8096546400       10.4045334798
  C         5.2324574710        2.2174207769        8.1523866084
  H         3.9170213366        1.0163877354        9.1020995780
  H         5.3558674071        1.5064183341       10.1367548872
  C         6.5282912834        2.9384687162        8.5125030902
  H         4.6527077866        2.6974445237        7.4374264612
  H         5.5797717392        1.3039073537        7.6551293624
  C         7.7431107024        2.0609511221        8.8558007894
  H         6.7873170903        3.5485002361        7.6807726768
  H         6.2134522348        3.5840053633        9.3372131542
  C         9.0236865491        2.8887681887        8.9293404556
  H         7.9338043695        1.3512097748        8.1125452951
  H         7.5840002012        1.5755603995        9.7751085778
  C         8.8078088918        4.1663543965        9.5998674967
  C         9.4448875144        3.5465687098        7.7064487200
  C        10.1676944778        2.1448813017        9.6287316700
  C         8.9595924443        5.3033724849        8.7768643480
  C         8.3913546901        4.6416954360       10.8489879421
  C         9.3828422162        4.9107495789        7.5361211287
  C         9.9845656224        2.9539484028        6.5860353730
  H         9.8057647778        1.6144726578       10.5391966310
  H        10.4660532758        1.3449978171        8.8988590623
  C        11.4653459319        2.9621863572       10.0433725359
  S         8.6258237606        6.7558981623        9.4547979069
  C         8.2370281595        5.9904988609       10.9230048290
  H         8.0697155765        3.9717297951       11.6032129047
  C         9.8152394772        5.5573627322        6.4192795711
  H         9.9642988717        1.9183615820        6.4932780505
  C        10.3381899188        3.5815802449        5.4200512396
  H        11.3760225920        3.9849108696       10.2351393689
  H        12.1170139578        2.7621076418        9.2151554759
  C        12.2687941666        2.4603632797       11.2051810748
  C         7.6357529970        6.7024681638       12.1827675098
  C        10.3532481232        4.9255462691        5.3287822163
  H         9.8025527100        6.6777584735        6.4983202139
  C        10.7215919450        3.1215721884        4.2062965853
  H        13.0335590274        3.2514447701       11.2534363936
  H        12.7258514533        1.5878695797       10.9103683332
  C        11.5660337860        2.3347901997       12.6039955524
  C         7.6817574730        8.0854694552       12.3905299253
  C         7.0598180027        5.9241934725       13.2675261093
  C        10.8695739139        5.5786897861        4.1074455906
  C        11.1364762918        4.2056016228        3.4440796927
  S        10.8843485240        1.5963581774        3.3854088256
  H        11.2803814642        3.2511963728       13.0074825744
  H        10.6639150396        1.7250076251       12.4499891291
  C        12.4877050374        1.7570697168       13.7019345210
  N         8.0855630132        9.0652149322       11.4832412741
  C         7.4248360776        8.6452832292       13.6038479626
  C         6.6948644632        6.4529308768       14.4825632152
  H         6.9525238866        4.8538214762       13.1037551199
  C        12.1985156530        6.1483658056        4.3707799600
  C         9.7866400445        6.4923362521        3.4393813408
  C        11.5632562054        3.7933253400        2.1567568737
  C        11.4452597022        2.4133540867        2.0066469558
  H        13.5346363924        1.9811679472       13.4964118497
  H        12.3093162799        0.5819866394       13.8309056890
  C        12.0954561311        2.3657030039       15.0354023982
  S         8.3203180939       10.4444697701       12.2436524062
  N         7.6648084449        9.9905297383       13.6406862280
  C         6.8939292342        7.9043858374       14.6874479367
  H         6.1843211744        5.7656975689       15.2030186384
  H        11.9006277511        6.7767140597        5.2550858440
  H        12.6026904642        6.7449048841        3.5159072428
  C        13.2930654701        5.1859371280        4.7437483664
  H         9.5579530202        7.2795648778        4.2020406803
  H        10.3251662496        7.0518210997        2.6572525351
  C         8.4907388438        5.8710274741        3.0266785168
  H        11.8842958994        4.5192596255        1.4320810493
  C        11.8051789394        1.5881037374        0.7599531728
  H        12.2062238683        3.4593214059       14.8992971673
  H        11.0773083745        2.1376088946       15.3068966220
  C        12.9268994222        1.7848634738       16.1492156299
  C         6.6396345082        8.5346722949       15.9398521413
  H        13.0138102903        4.5295246700        5.6503384448
  H        13.6233953539        4.6154217867        3.8984823045
  C        14.5839257600        5.8725038267        5.0844981922
  H         8.0998855952        5.2626999628        3.8166995391
  H         8.7360292750        5.2435801493        2.1428562098
  C         7.5008589274        6.8342540467        2.5491948565
  C        11.8480790272        0.1751973638        0.6212047367
  C        11.8484490929        2.3609808231       -0.5393362476
  H        13.9508617607        1.9309438491       16.1193160446
  H        12.8074910659        0.7739984556       16.3356299977
  C        12.5162814603        2.5589751259       17.4625855177
  H         6.7393508161        9.6246654164       15.8976267981
  C         6.3976516388        7.9642794526       17.1907778947
  H        14.4286053547        6.6505265620        5.8543360060
  H        15.0236237162        6.4147083998        4.2132056061
  C        15.6397419662        5.0059176332        5.7167219023
  H         7.2530105335        7.5749931563        3.3306440858
  H         7.8212936707        7.4005338795        1.6711254369
  C         6.2192186806        5.9888308525        2.2703022609
  N        11.4058251066       -0.6849600464        1.6268132862
  C        12.1092203964       -0.5114754893       -0.5461357709
  C        11.9800406420        1.6715425111       -1.7244561075
  H        11.5425629008        3.3628318129       -0.5205871290
  H        12.4748131438        3.5834713791       17.3113584983
  H        13.2260730589        2.4206334972       18.2723172789
  H        11.5989614927        2.0548772551       17.7565981906
  S         6.1672264703        6.3184276068       17.6931267338
  C         6.4326504208        8.9527259847       18.3111011197
  H        15.1413724050        4.3587014439        6.3880222387
  H        16.0788993793        4.3097081500        4.9888846117
  C        16.5717730066        5.8648992962        6.5996856284
  H         5.8508212024        5.5740823250        3.2037789330
  H         6.3672999451        5.1366452035        1.6558946581
  C         5.0758443530        6.8215075462        1.5858575626
  S        11.3851379210       -2.1956306005        1.1076482755
  N        11.9714201331       -1.8435830312       -0.3991197657
  C        12.3286007795        0.1537784763       -1.7471547245
  H        11.8631786805        2.2838955206       -2.6408611978
  C         6.0528010942        6.9908145568       19.3702729335
  N         6.0507541638        8.3243307832       19.4328709093
  O         6.6669013555       10.1528511365       18.1500925984
  H        16.9438411414        6.6597609946        5.9474576536
  H        15.9769784274        6.3490653713        7.3323705449
  C        17.7749542584        5.2005827008        7.2211726756
  H         5.5121722919        7.2235215456        0.6309273719
  H         4.2603634922        6.1550636070        1.2399485758
  C         4.6465300380        7.9974490061        2.4349756420
  C        12.5140040719       -0.5702705652       -2.9538836244
  S         5.4570980246        6.1016743920       20.7643593898
  C         5.8768402757        9.0821461458       20.6442741226
  H        17.5702579437        5.0056015431        8.2929910067
  H        17.8404350443        4.2287662863        6.9137003411
  C        19.0963290525        5.9671608703        7.1816646998
  H         5.4631045863        8.6834966558        2.5135921400
  H         4.3804119746        7.6233866623        3.4058773393
  C         3.5306239697        8.7727488086        1.7277284321
  H        12.2555074873       -1.6448009901       -2.8805613102
  C        12.7786196401       -0.1737382996       -4.2223288583
  H         5.1865316283        8.6817018845       21.3322687778
  H         5.5351526527       10.0730455940       20.3336408258
  C         7.1921775459        9.2262359261       21.4195283444
  H        19.9039015914        5.3603126163        7.4158718726
  H        19.0485744003        6.7811112310        7.9690836755
  C        19.3961003461        6.5361751718        5.7259554694
  H         2.6695201522        8.1200697106        1.5657153934
  H         3.1982638757        9.4677480655        2.5570361585
  C         3.8666961989        9.5986936806        0.4493617487
  S        13.3339305113        1.4208139799       -4.6929270363
  C        12.7726249973       -1.2105812107       -5.3014019402
  H         8.1199369783        8.9811566575       20.7795659726
  H         7.1926703311        8.8114714033       22.3581553046
  H         7.3924196125       10.3140836082       21.5577251414
  H        20.4779477674        6.6786095732        5.6971938424
  H        19.1701227893        5.7071842318        4.9765470182
  H        18.8736850207        7.4860812879        5.5155312709
  H         3.2142669003       10.4679232453        0.2725332910
  H         4.8672005259       10.0907471438        0.6478963740
  H         3.8503032658        8.9880749980       -0.4892033984
  C        13.7132868322        0.6354121114       -6.2173615568
  N        13.3503184725       -0.6383754510       -6.3859816973
  O        12.5263492662       -2.3750557392       -5.2354805658
  S        14.5993357563        1.4631773864       -7.5274751842
  C        13.6022324785       -1.4620272689       -7.5988346901
  H        13.9389458020       -2.4365328888       -7.3483111192
  H        14.3252733645       -1.1105473813       -8.3551672464
  C        12.2396218558       -1.5435287434       -8.3739468912
  H        11.3510595139       -1.2500260148       -7.7590929067
  H        11.9505380246       -2.5565324687       -8.6993944071
  H        12.1936067484       -0.9389454585       -9.3239714755
  H        -3.7764306812       13.5018433353       16.0132563875
  C        -2.8341811183       13.9321086537       16.3582897006
  H        -2.0001692249       13.2298326054       16.6782138859
  C        -3.1848539458       14.7047857255       17.6562106770
  C        -2.2886520876       14.8096859181       15.2631110581
  C        -3.5637021111       13.7293409115       18.7299713948
  H        -2.3764107494       15.3416302211       17.9547125642
  H        -3.9861253239       15.4246992646       17.4829514753
  H        -1.2420622917       15.0108438713       15.3430593271
  H        -2.3475831435       14.2494032212       14.3133855832
  H        -2.8219802869       15.7287449502       15.1863601594
  C        -2.3993300306       13.3217805333       19.6592648534
  H        -4.2031319415       12.8564027016       18.3692162708
  H        -4.3499270024       14.1797718267       19.3174723650
  C        -2.8382739968       13.2786860959       21.1649991042
  H        -2.1620278013       12.2430241029       19.3787416070
  H        -1.4713286700       13.8320387493       19.4897648861
  C        -1.7062996444       12.8047747418       22.1202372891
  H        -3.7324741697       12.6617193442       21.2702245110
  H        -3.1713441322       14.2686954356       21.5706976040
  C        -0.5940193113       13.7715951820       22.2416908644
  H        -2.1283504749       12.5958647300       23.1592319124
  H        -1.3447677905       11.7907886533       21.8703962249
  C         0.6903977555       13.1600916948       23.0594402869
  H        -0.2567958983       14.1250032364       21.2245559702
  H        -0.9805464036       14.5492321820       22.7693218290
  C         1.1031074089       11.8787586206       22.3980658346
  C         0.2954562646       12.4477684558       24.3715775142
  C         1.8956809258       14.2132735849       23.1759834467
  C         0.9879944333       10.7552114788       23.2233932051
  C         1.6558610433       11.4668058085       21.1860727790
  C         0.4457064223       11.1166258412       24.4907522016
  C        -0.2739303775       13.0807688876       25.4911651716
  H         2.0799082537       14.8012384902       22.1855559056
  H         1.6971398102       15.1113004649       23.7829605431
  C         3.1125527667       13.5533013003       23.8206874239
  S         1.5916042396        9.3141262628       22.5859245393
  C         1.9617358883       10.1115272838       21.0869087375
  H         1.7335842087       12.2557956541       20.4672949882
  C         0.1843449615       10.5674580733       25.6978090123
  H        -0.3371907036       14.1779213415       25.4689028227
  C        -0.5636492298       12.5030353291       26.6533928771
  H         3.4552670923       12.8496989660       23.1546309590
  H         2.7607958789       13.1365461079       24.7611932212
  C         4.3208084084       14.4595967753       24.0797091133
  C         2.4661502572        9.5144848298       19.8082269859
  C        -0.4269864972       11.1513256917       26.8149157955
  H         0.3226862750        9.4699860022       25.7901309532
  C        -0.9608342315       12.8318566700       27.9917126168
  H         4.9022305500       13.9924329780       24.8997313241
  H         4.0407790012       15.3815061422       24.5729726647
  C         5.1458715993       14.8005933033       22.8209740268
  C         2.4725642848        8.1719639884       19.5164305189
  C         2.9732905236       10.3336157079       18.6799015308
  C        -0.7220606959       10.4779857110       28.1460446359
  C        -1.0634422964       11.7709775752       28.8176951982
  S        -1.2615943997       14.3678866530       28.7378027031
  H         5.7908285436       15.6184292356       22.9849098976
  H         4.6524594385       15.1326972778       21.8970929946
  C         6.0451731915       13.5867471993       22.3693761870
  N         1.9708918870        7.1972315369       20.4121440265
  C         2.7646950599        7.6358150207       18.2518362437
  C         3.3072455351        9.8224935537       17.4642022060
  H         3.0014972067       11.4279887164       18.7879099898
  C         0.4945926305        9.6234437792       28.6729441102
  C        -1.9859854253        9.6232936761       27.9583758066
  C        -1.4614066349       12.1434206670       30.0807441006
  C        -1.6487606217       13.5276896714       30.1768380869
  H         7.1331499411       13.8905339982       22.2474064154
  H         6.0359198859       12.9191854100       23.2254971886
  C         5.5797623872       12.8387471625       21.1670282016
  S         2.1671773527        5.7095806512       19.7634119076
  N         2.7410882046        6.2035100546       18.2852114900
  C         3.2177957943        8.3371269638       17.1650397456
  H         3.5590395704       10.4692606973       16.6393257646
  H         0.6994033724        8.8411000688       27.9984697170
  H         0.2991691567        9.1600772871       29.6170343910
  C         1.7905250710       10.3638588664       28.8245900705
  H        -1.6437280708        8.7859675779       27.2816474944
  H        -2.2452384654        9.2726922612       28.8969570201
  C        -3.1981542403       10.3530272880       27.3661039723
  H        -1.5558322798       11.4046184415       30.8413303046
  C        -1.9871328700       14.2412379601       31.4754069175
  H         4.4412605995       12.7544848167       21.1060836727
  H         6.0291417346       11.8610665753       21.0984835926
  C         6.0927104460       13.6221428919       19.8757882823
  C         3.3501348846        7.6883297369       15.9054321206
  H         2.0331357808       10.8071114763       27.8861005183
  H         1.6083262503       11.2061990072       29.5392658664
  C         2.9060376449        9.3752027445       29.3222522414
  H        -3.1213297065       10.6193717295       26.3391661826
  H        -3.4212998453       11.2798201327       27.8592893436
  C        -4.4842369116        9.4699851591       27.4734712847
  C        -2.0056110335       15.6210573885       31.6625986412
  C        -2.3250761171       13.4200883436       32.6878437320
  H         5.4645674023       13.3967748241       19.0115054082
  H         6.0094373359       14.7233935436       19.9899606265
  C         7.4927020199       13.3398364123       19.4975116063
  H         3.3724975417        6.6044659178       15.8971197932
  C         3.6607308441        8.1468892987       14.6239002109
  H         3.2248333546        8.7076140670       28.5270891171
  H         2.5105312056        8.6951644673       30.0197329931
  C         4.0054423226       10.0714786875       30.0420167531
  H        -4.4556280928        8.5871230750       26.8975015100
  H        -4.5033069409        9.0721366408       28.4518291244
  C        -5.7601242218       10.1497912465       27.2140160941
  N        -1.6053139665       16.5074148892       30.6811387406
  C        -2.2208209009       16.2251258029       32.8913786703
  C        -2.4821200021       14.0464136109       33.9840727954
  H        -2.5248650634       12.3645570949       32.5908023873
  H         8.0108071849       13.9432297692       18.7610797147
  H         8.1250184839       13.2419161596       20.3722549863
  H         7.5801184875       12.3218613252       19.1017836609
  S         3.9999443232        9.7425358404       14.2123802749
  C         3.7083092274        7.2188711526       13.5246721163
  H         4.2308079187       10.9071775470       29.3712340539
  H         3.5038907829       10.4008463281       30.9521796886
  C         5.2597895660        9.1603248042       30.2143696733
  H        -5.7912644655       11.0045308528       27.9332486297
  H        -6.6172469359        9.5673196318       27.4840438287
  C        -5.8767053964       10.5541039820       25.7306347084
  S        -1.7702696403       18.0106548912       31.2155657133
  N        -2.1931622003       17.6433948432       32.7915089208
  C        -2.4955184362       15.4599198172       34.0773054638
  H        -2.6825224155       13.5041156301       34.8756197861
  C         4.3616710635        9.1186598545       12.5864602391
  N         4.2597661359        7.8082267299       12.4429449195
  O         3.1643444818        6.1113175523       13.5534518864
  H         6.1635291727        9.7309886174       30.5949121216
  H         5.3874165331        8.6606933022       29.2741484304
  C         5.0655385459        8.1877929842       31.3710060612
  H        -5.0461542999       11.1898114057       25.5564132377
  H        -5.7310669263        9.6871640976       25.1525437063
  C        -7.2479864011       11.1124820101       25.2749945952
  C        -2.6993163185       16.1983772701       35.2375327989
  S         4.9839970300       10.0334742976       11.2530302007
  C         4.3196046713        7.1402839064       11.1475644341
  H         5.4619216637        8.7047327641       32.2130506051
  H         4.0411369379        8.1084289516       31.5727991651
  C         5.8616193370        6.8242226079       31.3144432750
  H        -7.1499602589       11.4404256557       24.2745115156
  H        -7.4029040839       12.0356414907       25.7136631946
  C        -8.4155673295       10.1696020584       25.3295651005
  H        -2.5559705620       17.2582618048       35.0542074379
  C        -3.2277003343       15.8257316069       36.4707033521
  H         5.2013760229        7.4084122606       10.5677173769
  H         4.4977079391        6.0947768256       11.4508263592
  C         3.0176710975        7.3073625207       10.3810031998
  H         5.2586722341        6.1425656073       30.6021825947
  H         5.7290366490        6.2960971684       32.2953517772
  C         7.3157643630        6.9149068031       30.8194145625
  H        -9.0364688985       10.0916230190       24.4135322167
  H        -8.0178242327        9.1347745133       25.4766082905
  C        -9.3723648579       10.4178304227       26.4499179871
  S        -3.6330490629       14.2699568746       37.0492633494
  C        -3.4899525152       16.9184441633       37.4563626680
  H         2.1745016465        7.4247522503       11.1072726449
  H         2.9245763305        8.0006061192        9.6105993146
  H         2.9526500023        6.3701690230        9.8790545039
  H         7.9704582645        7.0323455777       31.7118965271
  H         7.4585581222        7.6639684809       29.9972687326
  H         7.5596746786        5.9799654888       30.3293177551
  H        -8.9283548287       10.4739827840       27.4501922552
  H       -10.2213539759        9.7420446893       26.5443850482
  H        -9.8754999303       11.3994068078       26.3419108278
  C        -4.0563599109       15.0881238208       38.6117531106
  N        -4.0242186794       16.4349935062       38.5987048836
  O        -3.2539649781       18.1305986205       37.2301335090
  S        -4.5049632199       14.2931975786       40.1825220598
  C        -4.3226717759       17.1983916617       39.8016394980
  H        -4.6624362767       18.2159860577       39.5527184398
  H        -5.2544596205       16.6858214571       40.2531992019
  C        -3.1254920426       17.3024475576       40.8268060915
  H        -2.3767004802       18.0102272961       40.4936903180
  H        -3.4469843206       17.6197655093       41.8111442234
  H        -2.7209089345       16.2896379024       40.6982460509
