352
i=
  H         2.4652730444        3.1023063381       12.8129114331
  C         3.0056317971        2.1858611406       12.5210579203
  H         2.4959442327        1.5165994482       13.1504145285
  C         2.6581147308        1.7720754532       11.0504984652
  C         4.3833609469        2.4477052284       12.9453506268
  C         3.5640538018        2.3003000121        9.8417311762
  H         1.6830562755        2.1261334674       10.8426609405
  H         2.4813756523        0.6843222864       11.0120158332
  H         4.4211023828        2.5886800313       14.0845430835
  H         4.9252320033        3.2404899387       12.4814695640
  H         4.9233648469        1.4649177442       12.8888027139
  C         4.7043446400        1.4056722320        9.5463029835
  H         2.9374273262        2.3854769003        8.9882530267
  H         3.9593788675        3.3121557610       10.0673691316
  C         5.2975289539        1.7963966180        8.1917014563
  H         4.3610780032        0.3842186775        9.4956251771
  H         5.4588948896        1.5172792629       10.3294366784
  C         6.6194346161        2.5817659666        8.2119000203
  H         4.6465355700        2.3242041373        7.5364051692
  H         5.5388563636        0.8303696593        7.6377614881
  C         7.9188580673        1.8285422577        8.6821877241
  H         6.7576165999        2.9260813947        7.1718254669
  H         6.3787502055        3.4267772119        8.8227857693
  C         9.1660077971        2.8790808817        9.0104398155
  H         8.2722157082        1.1141148154        7.8532361778
  H         7.9284965063        1.1566147908        9.5511222012
  C         8.7237701789        4.1795697774        9.7181656479
  C         9.6393279732        3.6111119459        7.7902620837
  C        10.3280857808        2.1848182236        9.8211892292
  C         8.9784657648        5.3201788065        8.9281141787
  C         8.1217575514        4.5454603109       10.9279044423
  C         9.5713187825        4.9760484751        7.7255848233
  C        10.1962558206        2.9873596510        6.6443884561
  H         9.8896850428        1.8596912353       10.8001827688
  H        10.6752015142        1.2524017424        9.2830067480
  C        11.5229190138        3.0736964445       10.1814246406
  S         8.7420454243        6.8360233377        9.7073772414
  C         8.0854359021        5.9372124528       11.0557704559
  H         7.9012799171        3.7219384592       11.6532566436
  C        10.0598690541        5.5653851378        6.6096460289
  H        10.4204775804        1.9168116264        6.7065641414
  C        10.5315973429        3.6031126558        5.4833791987
  H        11.0895652836        3.9300640595       10.5752220773
  H        12.0108358351        3.2357416900        9.2546956888
  C        12.4152728055        2.4721631727       11.2442441449
  C         7.6915490568        6.6075951944       12.3084967837
  C        10.5226036394        4.9548479033        5.4267585982
  H         9.9782585864        6.6728689622        6.5728760136
  C        10.9042173084        3.2616706846        4.2103918245
  H        13.3847520140        3.0700508891       11.2836990392
  H        12.5147857405        1.3816745225       11.0529245118
  C        11.8602320051        2.5274659244       12.6913823039
  C         7.6014979799        7.9951354950       12.5686062667
  C         7.3818662826        5.7435939587       13.4957982123
  C        10.7836732588        5.7338997990        4.2302480188
  C        10.9337467776        4.4420459692        3.4511553554
  S        11.1683572934        1.8271677845        3.4721475119
  H        11.5040793245        3.5659737228       12.6546179266
  H        10.9833813364        1.9493928896       12.7875719798
  C        12.9277359948        2.2107649942       13.8053719323
  N         7.7945687757        9.0335605151       11.6247435196
  C         7.2913510890        8.5212128408       13.8117638924
  C         6.9912405823        6.2589385019       14.7300936364
  H         7.3169433871        4.6425907865       13.3408520280
  C        12.0384214911        6.5462267827        4.3244767909
  C         9.6225959987        6.5903560181        3.6890455825
  C        11.1640611315        4.0843025903        2.0862843033
  C        11.4375154361        2.6936593915        2.0296485750
  H        13.6140794053        3.0117600760       13.5347521336
  H        13.5724087038        1.2651277816       13.6995438625
  C        12.4058037825        2.3505160487       15.2678698202
  S         7.7139874250       10.4782898144       12.3468864996
  N         7.3060844456        9.9212226404       13.8140496355
  C         6.9300066543        7.7489466037       14.9214907850
  H         6.7214660421        5.5966629857       15.5488160546
  H        11.9199349590        7.1900785172        5.2508883810
  H        12.2951973611        7.1624463187        3.5089374144
  C        13.2420385567        5.6651099433        4.6073517674
  H         9.6077469638        7.5883621039        4.1462417947
  H         9.8507891161        6.7490632514        2.6121036966
  C         8.2207979623        5.9316517167        3.7913405937
  H        11.1699260767        4.9065458346        1.3782650890
  C        11.6868697485        1.9223312921        0.7715719479
  H        12.2742167443        3.4160603656       15.4146697679
  H        11.4751895378        1.7473502411       15.4534525601
  C        13.5501616580        1.9529247296       16.2440068351
  C         6.6538669490        8.3876138268       16.1667224697
  H        13.0949047375        4.9734756230        5.3992712748
  H        13.3797068782        4.9951201922        3.7461596750
  C        14.4971541875        6.4308760395        5.0600796586
  H         7.8270871214        5.9200062523        4.8116248441
  H         8.4729595322        4.9306188251        3.6373639586
  C         7.1551184902        6.3745736085        2.7273907197
  C        11.7326265176        0.5686367562        0.6818471650
  C        12.0967325753        2.7122311899       -0.4499835102
  H        14.4238964384        2.5290875221       15.9110393125
  H        13.8266237412        0.9274926157       16.1529009807
  C        13.2679066764        2.5882008008       17.6205966731
  H         6.6629796226        9.4490781776       16.2335003107
  C         6.3934762352        7.8352009306       17.4040165107
  H        14.0956528141        7.0856235910        5.8857257459
  H        14.8566455381        7.0857304303        4.2496247219
  C        15.5833699456        5.4744734650        5.6400674566
  H         7.2318399798        7.4460963941        2.5870372973
  H         7.3884991615        5.8981441952        1.7357754904
  C         5.6778300353        6.0071517080        3.1268317487
  N        11.4504526617       -0.3976790689        1.6487611010
  C        12.0723748269       -0.0423605327       -0.5302620610
  C        12.3194450350        2.0560436398       -1.6439737456
  H        12.0665166849        3.7492783064       -0.3799073284
  H        12.3947323169        2.1787629647       18.0307266369
  H        13.1361975660        3.6572345762       17.4894424826
  H        14.0863901495        2.2949992916       18.2946003052
  S         6.1767446029        6.1920875631       17.9214910653
  C         6.2836344215        8.7774499100       18.5326513414
  H        15.1279585184        4.7853605244        6.3804099297
  H        16.0222896817        4.8168794572        4.9278252317
  C        16.7997964776        6.1777746851        6.2570382618
  H         5.4440002717        6.5711391830        4.0693853032
  H         5.7053523248        4.8999451242        3.2375501224
  C         4.6121812026        6.3408194543        2.0225982825
  S        11.7037743452       -1.9660899273        1.0029747044
  N        12.1468197770       -1.4104766659       -0.4486139392
  C        12.3491408410        0.5871497608       -1.7384857446
  H        12.4741554277        2.6177962969       -2.5578942072
  C         5.9366940757        6.7581086658       19.5267350837
  N         5.9881118092        8.0647446007       19.6480909807
  O         6.2745586104       10.0025389522       18.4429590284
  H        17.5008285212        6.5115558115        5.4864942002
  H        16.5237144719        7.0518124091        6.8392536393
  C        17.5742298143        5.1954778061        7.1711712217
  H         5.0740104471        6.1914416529        0.9970285727
  H         3.8887043053        5.5287474149        2.2237288288
  C         3.9541603469        7.7520726133        2.1083962007
  C        12.6780269581       -0.1355613386       -2.8886737689
  S         5.4118176513        5.8564387747       20.9442317591
  C         5.6717976599        8.8872836340       20.8593694003
  H        16.9598975032        4.8753099785        8.0014671939
  H        17.7360959104        4.2953784706        6.6079476418
  C        18.8524503449        5.6836594224        7.7669650963
  H         3.5821258227        7.9296581530        3.0707721000
  H         3.0048425089        7.6448706617        1.5102826695
  C         4.7816715658        8.8690006404        1.3765214169
  H        12.3873883345       -1.1382509575       -2.8404484372
  C        13.2137009722        0.2404124148       -4.1270768748
  H         5.0099997970        8.3945921928       21.5925278881
  H         5.1999720437        9.8393956144       20.7115073342
  C         6.8892915141        9.1190297645       21.6987157735
  H        19.1159677718        4.9352253477        8.4889502296
  H        18.6073479620        6.5987352785        8.3241237564
  C        20.0383993211        5.8547986375        6.8485004306
  H         5.6559251735        9.1162424990        1.8615735767
  H         5.0057108874        8.5311707486        0.4430949660
  C         4.1092523259       10.2094782992        1.1194111798
  S        14.0495386561        1.7453778066       -4.5298240623
  C        13.1614533799       -0.7455077479       -5.2209196643
  H         7.8512526603        9.2097436671       21.2539798713
  H         7.0546382930        8.2792062518       22.3525696707
  H         6.7650239199        9.9864191622       22.2233056112
  H        19.7217297328        6.1532534030        5.8142033743
  H        20.6918070315        6.5699981396        7.3309646273
  H        20.6785624748        4.9846675075        6.7355692004
  H         3.9467944958       10.8601882883        2.0185721705
  H         4.7176682767       10.8750016366        0.5134638060
  H         3.1641813382       10.0846662687        0.5745853234
  C        14.2418761678        0.9746628515       -6.1347134293
  N        13.8577200492       -0.2832401880       -6.2537134772
  O        12.7163909544       -1.8964758731       -5.0996497467
  S        15.0229434871        1.8670649240       -7.3816918510
  C        13.9716676976       -1.0396165724       -7.4603575454
  H        14.1911590390       -2.1144981868       -7.3744607638
  H        14.8456583981       -0.7276451636       -7.9661458643
  C        12.7773761866       -0.8820689438       -8.2883507880
  H        12.9173088498       -1.6588392076       -9.0484945083
  H        12.8027585890        0.0771607945       -8.8300334129
  H        11.8707660237       -0.9370686606       -7.6677962567
  H        -0.8609247389       13.1251846222       16.9529625492
  C        -1.3461073080       14.0201534721       16.5628726943
  H        -0.6013770432       14.5533625397       16.0560262310
  C        -1.9165263323       14.7462444606       17.7660864357
  C        -2.4169687637       13.4957529711       15.6233925296
  C        -2.6302670736       13.8337455873       18.7986010513
  H        -1.1549292092       15.3074881059       18.3003544566
  H        -2.6291381978       15.5110961642       17.3911592900
  H        -2.3823666563       13.8821235822       14.5903272777
  H        -2.2860420711       12.4779046472       15.3815106526
  H        -3.3666415413       13.7601372224       16.0872627963
  C        -1.7037344908       13.2263830998       19.8424672362
  H        -3.0691831798       12.9255660673       18.3331762930
  H        -3.5071940845       14.3659479587       19.1805566338
  C        -2.3537690872       13.0714350297       21.1965317568
  H        -1.3593395094       12.2489456179       19.3815785033
  H        -0.7734986230       13.8416563808       19.8709059604
  C        -1.3365150754       12.5184782557       22.1876894722
  H        -3.2299635100       12.4033324702       21.0728870200
  H        -2.7371010151       14.0889595695       21.4272702285
  C        -0.1401725437       13.4305996330       22.5541292519
  H        -1.8749141899       12.3801601007       23.1554609796
  H        -0.9401380978       11.5690976495       21.8106777865
  C         1.0575338030       12.7953939200       23.3754665216
  H         0.3045171832       13.9170890746       21.6617606533
  H        -0.4952824573       14.3400160878       23.0717913783
  C         1.4564938887       11.4439589234       22.7511099062
  C         0.6026307034       12.1253304411       24.6499157298
  C         2.2664560331       13.7207005053       23.4796831375
  C         1.0564064346       10.3546418278       23.4990425503
  C         1.9301317521       11.0785830779       21.4876614896
  C         0.6159467207       10.7516062148       24.7201019373
  C         0.1596989701       12.7657435096       25.7684319931
  H         2.2570653874       14.3265645034       22.5651236644
  H         1.9801397646       14.3534689929       24.3760713089
  C         3.5811408148       13.0207021691       23.6845852074
  S         1.4191035103        8.8262245971       22.8008700854
  C         1.9719222359        9.7174880891       21.3794275662
  H         2.2139314164       11.8712175449       20.7867102442
  C         0.1566058599       10.1376008904       25.8329848894
  H         0.2065697025       13.8384745450       25.6548942055
  C        -0.1795864450       12.1195219902       26.9439037564
  H         3.9175207244       12.5153146480       22.7720577204
  H         3.4656754770       12.2905281531       24.4887942554
  C         4.7662390553       14.0102573003       24.1308288613
  C         2.2895147389        9.0925243840       20.1046315503
  C        -0.1512685288       10.7436066259       27.0359865673
  H        -0.0212066409        9.0579101611       25.8234219902
  C        -0.5954518732       12.5015222459       28.1660624215
  H         5.4004891584       13.6356801096       24.9581215471
  H         4.3150135247       14.8748976804       24.5534879530
  C         5.7579113658       14.4596533818       22.9914401563
  C         2.1137215392        7.6807153166       19.8723108554
  C         2.8099874873        9.9479423616       18.9490460258
  C        -0.6728470071       10.0591320496       28.2276524130
  C        -0.9063175149       11.3763583855       28.9173727800
  S        -0.8348842966       14.0099371400       28.9163614788
  H         6.5057486970       15.1279713225       23.5291884622
  H         5.3238378030       15.1899338174       22.3564629375
  C         6.4457928018       13.4041347634       22.1520870208
  N         1.7595040538        6.6684822073       20.7676225426
  C         2.3618351770        7.1611979950       18.5918367111
  C         2.9321798737        9.4419425954       17.6784781756
  H         3.0386983632       10.9491479907       19.0337862578
  C         0.4238346900        9.2566755495       29.0494329829
  C        -2.0480615778        9.2970858157       28.0271929211
  C        -1.3756954716       11.8326478334       30.2006048939
  C        -1.2176090722       13.1874037615       30.3522268864
  H         7.5466561251       13.5249613328       22.1576134564
  H         6.3401380268       12.4214826356       22.7356208929
  C         5.7627620363       13.2235223168       20.7368587082
  S         1.4944324423        5.2608704672       19.9351488137
  N         2.2220690031        5.7604623645       18.5468101346
  C         2.7326764304        7.9928939662       17.4743111574
  H         3.2634295968       10.1547369086       16.9516492385
  H         0.7628605630        8.2923296919       28.5420532714
  H        -0.1021741082        8.7749629021       29.9236472766
  C         1.5833028208        9.9654738703       29.4809093096
  H        -1.8944676396        8.5847808800       27.2086179468
  H        -2.3279750120        8.7584825035       28.9554840253
  C        -3.1729978014       10.2838104677       27.6411637379
  H        -1.6290318279       11.0968884666       30.9816106798
  C        -1.6388529036       13.9582021563       31.5317033102
  H         5.4473959178       14.1823798856       20.2755085958
  H         4.8802264662       12.5120065827       20.7811971595
  C         6.7574652100       12.5951588190       19.7280621288
  C         3.0513111445        7.2096532052       16.2707109523
  H         2.0174509255       10.4792381772       28.6276780986
  H         1.3491450912       10.8149247786       30.0813325449
  C         2.6966534091        9.0785501157       30.1505574618
  H        -2.8533754447       10.9546470328       26.8667109257
  H        -3.4780551800       10.9569721476       28.4890974319
  C        -4.4249394123        9.5477857483       27.2131906435
  C        -1.7757109880       15.3751043841       31.7338617849
  C        -1.9169450630       13.1661963374       32.7243823131
  H         7.2097725514       11.6931197557       20.1125546167
  H         6.2019832145       12.3385323948       18.8267400630
  C         7.8073642288       13.6255705083       19.3777206899
  H         3.0512086225        6.0684640486       16.3575444143
  C         3.4163189168        7.6049693111       14.9749508605
  H         3.0176112552        8.3267381320       29.3690689577
  H         2.2197501413        8.7345986753       31.0996737413
  C         3.8465960928        9.9714905142       30.5750481032
  H        -4.1527798395        8.9033289492       26.4321963410
  H        -4.7697628151        8.9151691980       27.9628195916
  C        -5.5910658528       10.4187813273       26.8885847335
  N        -1.4406770876       16.2736975480       30.7627558783
  C        -2.0020624478       16.0100383010       32.9428954085
  C        -2.0778318028       13.7036962041       33.9850409147
  H        -1.8689845692       12.0870250879       32.7183353851
  H         8.5765530658       13.5153709369       20.1371610503
  H         8.1508493238       13.4561095979       18.4171220574
  H         7.4129957969       14.5609132952       19.4384602874
  S         3.8113827332        9.1611145872       14.5115966368
  C         3.6511358643        6.5378846575       13.9879301157
  H         3.8260524515       10.8741456855       29.9394092504
  H         3.6626630767       10.4239319148       31.5614133133
  C         5.0961609127        9.2957853160       30.2659177106
  H        -5.1787964651       11.2121033266       26.3193735197
  H        -6.0161729253       10.7342374287       27.8526880800
  C        -6.6554099972        9.8661552289       25.9608671707
  S        -1.7464535009       17.7771176988       31.3483480469
  N        -1.9479209804       17.4065438391       32.8787670227
  C        -2.1509241596       15.2632780232       34.1544359072
  H        -2.3749954853       13.0797810707       34.8122210862
  C         3.9346418442        8.4888030016       12.8708772129
  N         3.9691203572        7.1570658197       12.8348408734
  O         3.5515870880        5.3443236841       14.2554731932
  H         5.8508103191        9.9820365320       30.6030040413
  H         5.1451576935        9.2901442471       29.1268954197
  C         5.5013716566        7.9866167379       30.9658568805
  H        -6.2253071480        9.3532748450       25.1360373872
  H        -7.4082175885        9.1869218108       26.4768578044
  C        -7.4621412294       10.9592696083       25.3674741915
  C        -2.5703107454       15.9966010836       35.2900683041
  S         4.3885163613        9.3764604021       11.5030802441
  C         4.0234642990        6.4032052566       11.5680528836
  H         5.7888232113        8.1895501385       32.0308283574
  H         4.6056544630        7.3551661682       31.0991265799
  C         6.5375248521        7.0771326076       30.3220737347
  H        -6.8977504905       11.5198290529       24.5723331006
  H        -7.8373731001       11.7036828104       26.0816364234
  C        -8.6549518253       10.3726080648       24.6051788096
  H        -2.5298835693       17.0839321976       35.2149866607
  C        -3.0688931431       15.5261670973       36.5005067543
  H         4.7189985515        6.8767337499       10.7916245381
  H         4.6332066658        5.4702354068       11.7726999615
  C         2.5824760455        6.4115481317       10.9781276182
  H         7.3276489142        7.7053397985       29.9491595550
  H         6.1409336671        6.5336258252       29.4465153226
  C         7.2135197547        6.1470598172       31.2871322179
  H        -8.9731321256       11.1512655819       23.9047691576
  H        -8.3677941448        9.4708885083       24.0793052174
  C        -9.8334410295       10.1970955312       25.4981289924
  S        -3.6585663410       13.9326905098       36.8632763733
  C        -3.0840847602       16.4981628677       37.6370929387
  H         2.3761994200        5.4364960262       10.5569258562
  H         1.7569723890        6.5679270273       11.7338961794
  H         2.4771489422        7.1604557142       10.1967419063
  H         8.2608756169        6.0058545080       31.0517789954
  H         6.6487843986        5.1924334726       31.1115768715
  H         7.0709851386        6.4597595695       32.3287647873
  H       -10.1268946999       11.1222632646       25.9215760505
  H        -9.6141645770        9.4635671793       26.2575630848
  H       -10.5680234430        9.7965873712       24.9165957353
  C        -3.7248585234       14.5471705838       38.5407534045
  N        -3.7188784327       15.8995308107       38.6848859576
  O        -2.6678111358       17.6600670182       37.5180167881
  S        -4.6176143932       13.5810516520       39.7149133580
  C        -3.8451597511       16.7322937563       39.8153193204
  H        -4.2359036572       17.8027875866       39.5511255354
  H        -4.6462338985       16.3640000652       40.4230364932
  C        -2.5738801722       16.8957732885       40.6723283614
  H        -1.6693321403       16.6387925298       40.2103206845
  H        -2.4956123198       17.9577764658       40.8905513887
  H        -2.6693023978       16.3299558314       41.6396846905
