352
i=
  H         3.6599231339        1.2490178802       13.2142061178
  C         4.1339752750        2.2304229865       13.0865676391
  H         5.2468969272        2.1891276870       13.0675152622
  C         3.5985478314        2.9698211446       11.8595427801
  C         3.9062130366        3.0524272810       14.3354698067
  C         4.6192417448        3.0576610091       10.7033333461
  H         3.2106426868        3.9544496526       12.0559976245
  H         2.7176522903        2.3692247113       11.4916297491
  H         3.6385643100        2.6190304977       15.2535189715
  H         3.2488355391        3.9133223688       14.2251088110
  H         4.8510426725        3.5152066026       14.5672258123
  C         5.0210081801        1.6076207051       10.2325230195
  H         4.1754733368        3.6719322165        9.9685395586
  H         5.4863812089        3.6437060573       11.1042082348
  C         5.5367188880        1.6079550018        8.7735567667
  H         4.0722686586        1.0983047727       10.1315395615
  H         5.7114403570        1.0915326206       10.8923757645
  C         6.7792844712        2.4615940238        8.5012961003
  H         4.7988731389        1.8461277434        8.0638518326
  H         5.5335990243        0.5541251494        8.4267191750
  C         7.9912025538        1.8692720619        9.1167630859
  H         6.9442456402        2.6524296309        7.4711814664
  H         6.6515641278        3.4274948302        8.9244352577
  C         9.1774712186        2.8784789839        9.4259214379
  H         8.2178313888        1.0414836413        8.3981277757
  H         7.8123552369        1.4705492141       10.0927947846
  C         8.7524424314        4.1265829686       10.1611547416
  C         9.6015124427        3.5998773132        8.2041996613
  C        10.3362770876        2.2134914490       10.1240061403
  C         8.9419210646        5.2719170503        9.3763543203
  C         8.2997791342        4.5288557174       11.4246581424
  C         9.4816389856        4.9345412537        8.1610404859
  C        10.1837888293        3.0076815006        7.0632317097
  H        10.0440250904        1.7217069062       11.0577510776
  H        10.5984215843        1.3533721458        9.5421699831
  C        11.6484931947        3.0608087803       10.3198698825
  S         8.6469665482        6.7728141334       10.1160291150
  C         8.2281978013        5.8723824899       11.5655988293
  H         8.2167159064        3.8433130544       12.2356315308
  C         9.8457542243        5.5926877445        6.9924549282
  H        10.1019349586        1.9967832646        6.8759371526
  C        10.5186416173        3.6404615261        5.9390232691
  H        11.4358987140        4.1223626455       10.3510125811
  H        12.3109660113        3.0158820435        9.4008129015
  C        12.5554946795        2.6723014241       11.4772711123
  C         7.6865802222        6.5798062524       12.7742331149
  C        10.3534417220        4.9762596703        5.8591457389
  H         9.7478211156        6.6816449333        7.0549712412
  C        10.8616967567        3.2965882394        4.7082396710
  H        13.4932855657        3.2100469299       11.2614115681
  H        12.8613975896        1.6457620062       11.5322825712
  C        12.0098696531        3.1015866028       12.8270982580
  C         7.7627969625        7.9867434806       12.9806948274
  C         7.2721837537        5.7721625051       13.9839200650
  C        10.6561321415        5.6517274893        4.5675099810
  C        11.0185288072        4.3843247413        3.8705035947
  S        11.1479792575        1.8383517002        3.8900846482
  H        12.4518326139        4.0329142105       13.1150443877
  H        11.0137613061        3.2994495250       12.8108703127
  C        12.2396571205        2.0543281123       13.9120598437
  N         8.1581576622        8.8564695133       11.9489564751
  C         7.4716056300        8.5502303461       14.1755442894
  C         6.8668623758        6.3602641857       15.1385346322
  H         7.0529095048        4.7339395569       13.8100776344
  C        11.8269890928        6.7045250942        4.7570369967
  C         9.5531826102        6.4403057305        3.8552816452
  C        11.3467133332        3.9574375962        2.5590781193
  C        11.3163028941        2.6348281133        2.4180342266
  H        13.2331298026        1.7161106256       13.9776416829
  H        11.5832888590        1.1717900305       13.8848478031
  C        11.8184671927        2.6602306676       15.2071622096
  S         8.0575634994       10.3737223176       12.5816892938
  N         7.7267790605        9.9564613669       14.0779300655
  C         7.0402838419        7.8754001241       15.2904629986
  H         6.5007029216        5.7278446720       15.9156170362
  H        11.5213403753        7.6234058540        5.2415926971
  H        12.1296385261        7.1231872329        3.7868696699
  C        13.0213247291        6.0726454216        5.5711451233
  H         9.3252120598        7.3741439708        4.2523123117
  H         9.8778734885        6.7000804808        2.8966039435
  C         8.2282300517        5.6607494909        3.7316005874
  H        11.5249352907        4.7248988833        1.7595377042
  C        11.5448151205        1.8719995029        1.1477013864
  H        12.0235800221        3.6990649235       15.1024836992
  H        10.7946954662        2.5529462376       15.3545538020
  C        12.4377245019        2.0365135903       16.4432762108
  C         6.8296234356        8.5078933657       16.5649077125
  H        12.6568633397        5.7996831805        6.5454563928
  H        13.2627763646        5.0843205433        5.1581252736
  C        14.4002142502        6.7038157490        5.5426206312
  H         7.6764689210        5.9512510309        4.5885418967
  H         8.2623478734        4.5647294817        3.4656102789
  C         7.4434746770        6.3514509534        2.5391548498
  C        11.6671218270        0.4892583221        0.9696225607
  C        11.9202250088        2.6336385197       -0.0873525970
  H        13.0304488001        1.1556558008       16.1227137328
  H        11.6009168248        1.7826990770       17.1171936741
  C        13.3207478756        2.9305414142       17.2993983963
  H         6.9202783589        9.6206069165       16.4737759933
  C         6.7113394912        7.9669770165       17.8232716692
  H        14.4986962451        7.6347785866        6.0492473281
  H        14.7077163021        6.8957721636        4.4894417040
  C        15.4298756784        5.8499215090        6.2790535747
  H         7.5298784786        7.3907396229        2.6793982677
  H         7.9512817255        6.1501964784        1.6066654197
  C         6.0418238793        5.8595368776        2.3823921505
  N        11.5008585461       -0.4355011458        1.9803362434
  C        11.9754800072       -0.1781057736       -0.2400565677
  C        12.2514001556        1.9495418249       -1.2517854495
  H        12.1506701553        3.6876476152       -0.0339691368
  H        13.5820161973        2.4349575160       18.1918906585
  H        12.8398157864        3.8683551505       17.5615908258
  H        14.1937972042        3.1334194090       16.6739129895
  S         6.6211392160        6.2939957327       18.2959737948
  C         6.5119450854        8.8751511636       18.9293097467
  H        15.6408415454        6.2676472096        7.3117622875
  H        15.0730959283        4.8435861376        6.4525695779
  C        16.7422538349        5.6900459061        5.4963365023
  H         5.8446826586        5.0544902511        3.0924014938
  H         5.9742532817        5.3524353711        1.3836544809
  C         4.9143128020        6.8751502892        2.5678650899
  S        11.6360852989       -1.9529734143        1.4660787425
  N        12.0182327135       -1.5182858656       -0.0925682485
  C        12.3033071822        0.5391622023       -1.4251192663
  H        12.5062670755        2.6298528903       -2.0319638385
  C         6.3105182486        6.9370232912       19.9380967828
  N         6.3628817687        8.2812751175       20.1097755759
  O         6.7225987413       10.1094908323       18.8253727582
  H        16.6235066973        5.0275732568        4.6384680554
  H        17.0869067441        6.6544070996        5.1439234536
  C        17.8345792832        5.1314157908        6.4070934852
  H         3.9859513449        6.4419899007        2.7165529062
  H         5.0260685393        7.4906179264        3.4708728227
  C         4.9614541907        7.7411356673        1.2656336009
  C        12.6514585049       -0.1933920377       -2.5812714079
  S         6.0479882970        5.9790366252       21.4524261588
  C         6.4873789905        9.0380544222       21.3584954697
  H        17.4542772967        4.6277161334        7.2839913239
  H        18.3431947756        4.4049326291        5.7110196317
  C        18.6790919717        6.2990769164        6.8542814749
  H         4.9677250293        7.0199190499        0.4753377468
  H         5.9323050762        8.2404757330        1.1187554134
  C         3.9572800134        8.8622106528        1.2157339964
  H        12.4696343040       -1.1747521579       -2.5471260450
  C        13.0924098030        0.1126382496       -3.8116039323
  H         5.9039486573        8.5300219708       22.1777796951
  H         5.9234308826        9.9070172299       21.1888800738
  C         7.9099702008        9.4379727024       21.6934910771
  H        18.0524089936        7.0789163892        7.1305156836
  H        19.3033616687        6.7281076280        6.0517563910
  C        19.3783781596        5.8374211584        8.1518289179
  H         3.9369864604        9.1913101968        0.1574061429
  H         2.9002141074        8.5974701682        1.4475530858
  C         4.4544302033       10.0981017437        2.0343887425
  S        13.3271183494        1.6933300468       -4.3407923045
  C        13.3699000775       -0.9780579577       -4.7880915820
  H         8.2818361252        8.6484722722       22.3094741181
  H         7.8852466889       10.3099446158       22.3441381726
  H         8.5349338160        9.5979314511       20.7994229792
  H        18.8080742644        5.2085886307        8.8213421959
  H        20.2729900012        5.2998156699        7.8167441923
  H        19.7401242831        6.6932040932        8.7852129037
  H         5.1492920618       10.7465311474        1.5318460353
  H         3.6787330891       10.7097664961        2.4416457398
  H         4.9556564386        9.7589944183        2.9457803233
  C        13.8733862074        0.9651164883       -5.8162586630
  N        13.8054885638       -0.3790854680       -5.8820775639
  O        13.2717839847       -2.1778644877       -4.5171362578
  S        14.5881451167        1.8626666494       -7.1987055679
  C        13.8982917772       -1.1179867959       -7.1403671472
  H        14.0880095192       -2.1503505143       -6.8667385480
  H        14.7622705895       -0.7740589743       -7.6528468938
  C        12.6459990540       -1.0607974193       -8.0020915359
  H        12.6243539564       -1.7726674964       -8.8144254643
  H        12.5421244486       -0.0212144839       -8.4289703146
  H        11.8145957859       -1.3603435884       -7.3545255657
  H        -3.1029344267       15.0299048912       14.9364627646
  C        -3.1144131791       14.2279513025       15.7072179300
  H        -4.1548794794       14.2292989387       15.9863561231
  C        -2.2208048023       14.6207137193       16.9468399876
  C        -2.6593368818       12.9119017226       15.1324730481
  C        -2.7945789605       14.0852462022       18.2914134426
  H        -1.1474852503       14.3570747972       16.8999675717
  H        -2.1804149240       15.7085938554       17.0411141228
  H        -2.0703456743       12.1979891020       15.7418531132
  H        -3.5396908609       12.4110372569       14.6671056505
  H        -1.9731799563       13.0614506297       14.2967508216
  C        -1.7693794882       13.8033294244       19.4408172865
  H        -3.4152096036       13.1991391175       17.9022222745
  H        -3.5025196778       14.8740729063       18.5962685569
  C        -2.3337094160       13.5868844961       20.8619876600
  H        -1.3723341588       12.8448975098       19.1868042453
  H        -0.8915199958       14.4603096081       19.4873388535
  C        -1.1790791882       13.0189689474       21.8296484385
  H        -3.1489910827       12.8390068374       20.8504659873
  H        -2.8304339183       14.4310786736       21.3011967991
  C         0.0254280213       14.0121496435       22.1065995536
  H        -1.6038598860       12.8633140638       22.7801991624
  H        -0.8977538125       12.0432384592       21.5091254950
  C         1.0896483306       13.3044686190       22.9763430439
  H         0.5263524996       14.4097318229       21.2280400579
  H        -0.3279905581       14.8398569294       22.6582095399
  C         1.5488847592       11.9619113008       22.2658264377
  C         0.7464345999       12.5542267152       24.1874600416
  C         2.3274878757       14.1207003130       23.1859446189
  C         1.4244339321       10.7957088445       23.0317746321
  C         2.0838672408       11.6312301719       20.9837323503
  C         0.8932806857       11.1509306569       24.2544464712
  C         0.3860327295       13.0709225076       25.4090979725
  H         2.6079731069       14.7736622559       22.3069487748
  H         2.0880260293       14.7287910481       24.0661895169
  C         3.5919447133       13.3611113047       23.7426730745
  S         2.0763605083        9.3968454374       22.3095287893
  C         2.4748847290       10.2949407923       20.8595041500
  H         2.0988990049       12.4350365189       20.3004219560
  C         0.7093432062       10.4924277483       25.4600454749
  H         0.4100436465       14.0941043162       25.4883951973
  C         0.1226525388       12.4368414783       26.5950815974
  H         3.7674689449       12.4507469273       23.2009687496
  H         3.4823452535       13.1625664168       24.7442519247
  C         4.9547682275       14.0509447406       23.6029795642
  C         2.8977560480        9.7194830780       19.6014332027
  C         0.3080789206       11.0904168407       26.6565715426
  H         0.9484862790        9.4480392193       25.4037690473
  C        -0.2556283899       12.8131387185       27.8645285907
  H         5.6722121272       13.4627792366       24.1808735068
  H         4.9381804669       15.0132302013       24.0652676100
  C         5.3064285478       14.2510585379       22.1423536466
  C         3.0217275474        8.3154509800       19.3352649794
  C         3.2001673328       10.6135475712       18.4686678155
  C        -0.0600884700       10.3900318686       27.8998527575
  C        -0.3414106147       11.6741315553       28.6396238840
  S        -0.5988383795       14.2658845632       28.7695083452
  H         5.5463671686       15.3529985082       22.0529627738
  H         4.4309788536       14.0587323691       21.5177246533
  C         6.5087336680       13.3097077689       21.7853566394
  N         2.7989510962        7.2685878336       20.2667765086
  C         3.3024753151        7.7623866402       18.0975255875
  C         3.3936636882       10.0310741227       17.2045010855
  H         3.1456895618       11.6855313769       18.5997970062
  C         1.1171005867        9.6741970482       28.6059713043
  C        -1.3162243941        9.4681953491       27.8029957850
  C        -0.7418406239       11.9359188817       29.8891000217
  C        -0.9176094895       13.2873957594       30.1903662051
  H         7.4121869329       13.7881845764       22.2132744172
  H         6.4054091565       12.2036042407       22.1758487123
  C         6.6166533887       13.0123746819       20.3156580662
  S         2.9373415386        5.8392317252       19.5220994127
  N         3.3057086783        6.3899108732       18.0154976286
  C         3.5740217790        8.5793861276       16.9643985598
  H         3.5630082535       10.8065499969       16.4430805579
  H         1.6405742035        9.0570167856       27.8537152229
  H         0.7174076264        8.9927414230       29.3444422766
  C         2.1953205379       10.5696273538       29.3183998707
  H        -1.0129547705        8.6110808295       27.1727797793
  H        -1.5844221735        9.1315030910       28.7933177278
  C        -2.5654109247       10.1062383879       27.2176369012
  H        -0.8544218097       11.1234826680       30.5065250521
  C        -1.2169570157       13.8813898506       31.5431571612
  H         5.6458206631       12.7282088670       19.8723003422
  H         7.2259966482       12.1707384588       20.2976640171
  C         7.2264371800       14.1221577497       19.5404597224
  C         3.8130265856        7.9956136162       15.7162456009
  H         2.6068760289       11.3816732343       28.6798289853
  H         1.8464298989       11.1089876787       30.2235181802
  C         3.2609380786        9.6146879493       29.8299733903
  H        -2.4354285946       10.2529056354       26.1665410582
  H        -2.6503019323       11.0208256044       27.7237034131
  C        -3.7626423841        9.1886860709       27.4805122188
  C        -1.3869585176       15.1940314578       31.7983315032
  C        -1.3607762576       12.9360980069       32.7111550774
  H         6.5074004283       14.9581440859       19.6177653005
  H         8.2423253130       14.3636378040       19.8202137067
  C         7.5366319106       13.7942936528       18.1325942485
  H         3.5818203746        6.9770881265       15.7975662130
  C         4.0211153535        8.4641764944       14.4915599990
  H         3.6703586968        9.1149734102       28.9383388654
  H         2.8031408884        8.7360535518       30.4047999631
  C         4.4095346080       10.1625987380       30.6477350947
  H        -3.8279279398        8.3855306251       26.7638519730
  H        -3.5429234503        8.7978465590       28.4620706405
  C        -5.1518365493        9.8425720953       27.3458976903
  N        -1.2233292485       16.2007596966       30.8428171704
  C        -1.6935249312       15.7170769162       33.0240864869
  C        -1.6109082720       13.4136873580       33.9361341813
  H        -1.2396740583       11.8367281388       32.5883757037
  H         6.6013213343       13.6521709377       17.5399910351
  H         8.2440103881       14.4166024373       17.6308373226
  H         7.9838395210       12.7939193264       18.0640230606
  S         4.3361381270       10.1211071109       13.9974622218
  C         4.1076050586        7.4855254111       13.3764376317
  H         4.5275715132       11.2409043388       30.4787538245
  H         4.1396938415       10.1128677378       31.6829036086
  C         5.7980669838        9.4283394275       30.4934092249
  H        -5.2833238393       10.7473979746       27.9532431615
  H        -5.9508877261        9.2060851764       27.7388636304
  C        -5.3999351351       10.2287150901       25.8644043325
  S        -1.3500253440       17.6587559146       31.5713215166
  N        -1.7508620793       17.1151287924       33.0340703053
  C        -1.8409301746       14.9136357957       34.1779105308
  H        -1.6828924661       12.7454870300       34.7718632570
  C         4.4988517848        9.4777014529       12.3682272192
  N         4.2968734543        8.0953468462       12.2403617823
  O         4.0624425417        6.2816590579       13.5672840343
  H         6.6529453887       10.0434090066       30.9423997993
  H         5.9614054257        9.5019919325       29.4202846513
  C         5.7669464621        7.9935841692       31.0755600563
  H        -4.6886911398       10.9255509393       25.4963328905
  H        -5.1632411382        9.3336035792       25.3013171223
  C        -6.8138923261       10.6466495240       25.5103312823
  C        -2.2645817874       15.5537700300       35.3900064817
  S         5.1445844439       10.4473932908       11.1342288288
  C         4.3932026064        7.3596547251       10.9639365610
  H         6.0409429482        8.2994622392       32.1067563472
  H         4.7655182605        7.4861973884       31.0895922287
  C         6.6659015110        7.0631828127       30.2980709899
  H        -6.8552496440       10.9828082539       24.4759108046
  H        -7.0611470970       11.5274446201       26.1300713837
  C        -7.8566452621        9.5200554354       25.5531820552
  H        -1.9515232466       16.5617531428       35.3911963469
  C        -3.0391678338       15.1062296268       36.4735688416
  H         4.8572337636        7.9871505640       10.2772711703
  H         5.0247064588        6.4805501834       11.1217981799
  C         3.0409194674        6.9306272217       10.4126171270
  H         7.6012600358        7.5314209696       29.9271919879
  H         6.0243515792        7.0132255806       29.4464529521
  C         6.9295770378        5.7123844468       31.0690641283
  H        -7.9323912244        9.0019877967       24.5739357536
  H        -7.5414944444        8.7955671796       26.2979616271
  C        -9.3013970413        9.9057628299       25.9549395976
  S        -3.6684521369       13.5570436140       36.6885016160
  C        -3.3274923961       16.1123435545       37.5484468969
  H         2.4641630048        7.6618685567        9.8532473233
  H         3.1795870054        6.0909348254        9.7628127853
  H         2.4275262506        6.4444232939       11.2062151224
  H         7.5064222502        6.0577862269       31.9145800181
  H         7.4858491332        4.9816687595       30.3991230659
  H         6.0263730601        5.2928402778       31.4909587546
  H        -9.8184135788       10.2787468977       25.1174350060
  H        -9.3899067091       10.5898385341       26.8074566307
  H        -9.7770966590        8.9494552711       26.2439154587
  C        -4.2391924500       14.1518052642       38.3000891376
  N        -4.0599129807       15.5080638964       38.4931583938
  O        -3.0108162163       17.3297508428       37.5618912054
  S        -5.2051365005       13.1419839043       39.3993561677
  C        -4.4720376325       16.2130452593       39.7027637370
  H        -4.9102137544       17.2098577269       39.4012780141
  H        -5.2895760784       15.5965637259       40.1501228843
  C        -3.3215151260       16.3735199941       40.6336902730
  H        -2.6214243621       17.0794656099       40.2493794868
  H        -3.5397924920       16.6254534876       41.6555673344
  H        -2.8878094227       15.4145658588       40.6939888159
