352
i=
  H         2.5916132174        3.5781699867       12.0263898711
  C         2.8779280695        2.5113236121       12.2461317144
  H         2.2269563394        1.8857031822       11.6156142425
  C         4.3049978119        2.3251253063       11.8262907070
  C         2.8574318459        2.3262247172       13.7848819509
  C         4.5036624444        2.5846855296       10.3007162314
  H         4.5215292026        1.2777919960       12.1033706183
  H         4.9747010150        3.0708143148       12.3551315934
  H         3.2195629667        1.3371198563       13.9843863721
  H         1.8637786027        2.4026051198       14.2675651970
  H         3.5886083598        2.9772118349       14.2893873659
  C         4.8127134183        1.3058357007        9.5823593621
  H         3.5875546106        2.9962223133        9.8766334777
  H         5.2486586854        3.3752770594       10.2838423572
  C         5.5065640967        1.6591047394        8.2221153651
  H         3.9400939786        0.8292518782        9.3408818222
  H         5.2917349363        0.5466500054       10.1486805456
  C         6.8119908812        2.4100038159        8.2963563143
  H         4.8039720614        2.2762528610        7.6544916024
  H         5.5380258405        0.8080520164        7.5619034115
  C         8.0142091164        1.7748205616        9.0869205618
  H         7.1320951793        2.4198126584        7.2615496186
  H         6.4946815977        3.4210944693        8.6313105942
  C         9.2502047330        2.6850411160        9.3216789493
  H         8.3976312222        0.9102882684        8.5657520405
  H         7.5495225839        1.5373457778       10.0585582606
  C         8.8633204340        4.0925637637        9.8665576200
  C         9.8161887750        3.3661264147        8.0462930234
  C        10.3343083404        2.0059504904       10.1755628328
  C         9.2863481097        5.1647870887        9.1275202389
  C         8.2971368889        4.5180757394       11.0954352015
  C         9.7668757571        4.7314868006        7.8936345748
  C        10.2510393380        2.7772007153        6.8961885279
  H         9.9408213312        1.5358721190       11.1260765363
  H        10.8120551121        1.1875348760        9.5582499292
  C        11.4541040925        2.9945598996       10.5518228168
  S         8.9562856578        6.7102784584        9.8540589905
  C         8.3207174092        5.9119776347       11.1982934031
  H         7.8860042405        3.7398140364       11.7485145739
  C        10.2226170324        5.3748105873        6.7894774092
  H        10.3379700905        1.7573659287        6.8763102085
  C        10.6786978431        3.4275486090        5.7290619585
  H        11.1542643974        3.6947289039       11.4046575949
  H        12.0069587746        3.5780406222        9.8616753249
  C        12.6056493874        2.1448993200       11.2089309743
  C         7.9910928603        6.5619074026       12.5190048755
  C        10.6937681625        4.7610459660        5.6477902147
  H        10.0821462410        6.4117963384        6.7740519464
  C        11.1402868456        2.9876883981        4.5152686743
  H        13.4982919120        2.7459887553       11.3988704793
  H        12.9267328144        1.3426689176       10.6102886175
  C        12.2976997253        1.4758478626       12.6014024253
  C         7.9167870949        7.9270019225       12.8182407826
  C         7.5855579259        5.6852744757       13.6726735382
  C        11.1185519356        5.3982593032        4.3440391333
  C        11.3721393800        4.0280569276        3.6906703932
  S        11.3668246840        1.4524323598        3.7894202167
  H        11.3128974202        1.1980102868       12.6680162829
  H        12.9239640392        0.5561654003       12.5650519128
  C        12.5450129457        2.3718034104       13.7958713446
  N         8.1027647137        8.8775218060       11.8412610892
  C         7.6565096159        8.5085466106       14.0685005402
  C         7.2326810830        6.2306969979       14.8927729041
  H         7.3026870343        4.6102588032       13.5986729409
  C        12.4015841725        6.2409726529        4.5228568134
  C        10.0487981517        6.2331994296        3.5718363161
  C        11.6738067376        3.5382180296        2.3965334160
  C        11.7687199833        2.1689479186        2.3200547858
  H        11.9232545986        3.2007545560       13.7451228316
  H        13.6015302697        2.7379773413       13.7317190567
  C        12.1215754181        1.6451868930       15.1039048066
  S         8.1412878344       10.3477776595       12.4864868225
  N         7.7662254846        9.9097528458       14.0217921024
  C         7.3944673684        7.6986462417       15.2046827687
  H         6.8110088895        5.5755261041       15.6774789128
  H        12.1352014194        7.0656578699        5.2599694837
  H        12.5910952981        6.6818570300        3.5798355933
  C        13.5371274800        5.4082094109        5.2177979302
  H         9.5765891138        6.9453872806        4.2028029661
  H        10.4933015776        6.8819665926        2.7530297771
  C         8.9814176390        5.4264571741        2.8778604376
  H        11.8429626462        4.2594044942        1.6014500830
  C        12.0999489773        1.3903529228        1.0785973070
  H        11.0879121984        1.4442015854       15.0981804735
  H        12.4655785325        0.5846918555       15.0021772096
  C        12.8254560655        2.3215506618       16.2660634437
  C         7.1475238184        8.3927071474       16.4710339640
  H        13.2566871127        5.2795139426        6.2606099009
  H        13.7446539574        4.5032359417        4.7266591725
  C        14.8303799776        6.1843788096        5.1969300204
  H         8.4880521625        4.7396994239        3.5263065463
  H         9.3889411960        5.0680886376        1.9563955669
  C         7.8392631046        6.2865606168        2.2498509991
  C        12.1470089242       -0.0134567009        1.0174622142
  C        12.3142601417        2.1704554935       -0.1427207739
  H        12.5560931126        3.3372611513       16.4805826542
  H        13.9393242314        2.2538815717       16.0036937736
  C        12.6337963351        1.5576566006       17.5488654648
  H         7.2309599748        9.4895473491       16.4862918923
  C         6.8545968883        7.8800212277       17.7046926200
  H        14.7006117670        7.0637805705        5.8018485010
  H        15.0931181437        6.6029876042        4.2134923400
  C        15.9687676644        5.3152124151        5.7458329263
  H         7.3714942915        6.8355513994        3.0887881603
  H         8.2485920293        6.9415838491        1.4988912600
  C         6.7149403923        5.5176473676        1.6558355701
  N        11.6823444732       -0.8775600469        2.0160349201
  C        12.3637857801       -0.6536383335       -0.2050488108
  C        12.6523956403        1.4848917718       -1.3072103924
  H        12.3455185057        3.2273426825       -0.1063936348
  H        12.9885000612        2.2219372407       18.2866554259
  H        13.1866248141        0.6274542801       17.5821042761
  H        11.6081617148        1.3296766527       17.8328486089
  S         6.5801431430        6.3135189339       18.1887286419
  C         6.5713155293        8.9074932466       18.7541600385
  H        15.4783615457        4.7201056387        6.5100059882
  H        16.2620708170        4.6922651330        4.9065804943
  C        17.1297532683        5.9810168694        6.3561642371
  H         6.5545871029        4.5534042625        2.2000740363
  H         6.9528883427        5.2434105536        0.6957034426
  C         5.4325623074        6.3085099456        1.6789254748
  S        12.0716749204       -2.4208633004        1.6028502573
  N        12.4318105390       -2.0384038348       -0.0166708949
  C        12.7163032194        0.0483207020       -1.3834743362
  H        12.8444086387        2.0960413520       -2.1756960963
  C         6.0969630890        6.9450288961       19.7530406414
  N         6.1862237418        8.3083280451       19.8856810580
  O         6.6585183319       10.1157190324       18.5787548237
  H        17.7135704222        6.4147414566        5.5152409848
  H        16.9624156400        6.7645859289        7.0972742228
  C        18.0499168854        4.9628681204        7.0779729632
  H         4.5720042795        5.7249334650        1.2563158836
  H         5.1874528637        6.3582645888        2.7225169581
  C         5.4122678249        7.6734809902        0.8983955632
  C        12.9704486014       -0.7119523012       -2.6290930954
  S         5.8721592951        5.9281558239       21.1329534934
  C         6.0235340451        9.0798478163       21.1088070114
  H        17.7960738615        4.8718778139        8.0983506262
  H        17.8773347264        3.9818513048        6.6361234592
  C        19.4490007464        5.5190694691        7.0940058764
  H         5.5226160837        7.5449124718       -0.1517532905
  H         6.2734759395        8.2836679690        1.2178240795
  C         4.1194062033        8.5527637632        1.1344961519
  H        12.7201050886       -1.7630102870       -2.4704988723
  C        13.4356839046       -0.3955206235       -3.8944353926
  H         5.4007712366        8.6505085107       21.8110970321
  H         5.5292526229       10.0251976609       20.8507155282
  C         7.4922838065        9.3611625921       21.6887655798
  H        20.1454494793        5.1247126929        7.8458570582
  H        19.2628602929        6.5963213824        7.2521356369
  C        20.1462482847        5.4329736312        5.7353038171
  H         4.0509238170        9.4237452533        0.5461477648
  H         3.2874628208        7.9060084381        1.0057884358
  C         4.0014961579        9.1451222650        2.5881024175
  S        13.9854982075        1.1315965363       -4.4575032081
  C        13.4287945392       -1.4663343989       -4.8981002625
  H         8.0891645899        9.8326745541       20.8747341596
  H         7.9432711598        8.4308183582       21.9372129724
  H         7.5180567739        9.9745846466       22.5859451885
  H        19.5543714273        4.9377267206        4.9863742972
  H        20.5230494122        6.3673802075        5.3504772571
  H        21.0334790856        4.7498599407        5.8897253075
  H         3.2642892982        9.9020019290        2.6411538727
  H         3.8739157737        8.2469324901        3.2792780136
  H         4.9036832275        9.7090809457        2.7684535908
  C        14.2830349957        0.3678776596       -6.0319389202
  N        14.0613809041       -0.9745762374       -6.0023245328
  O        13.0217726250       -2.6286437492       -4.6529829167
  S        15.2109912033        1.1634871390       -7.3329631419
  C        14.2799547249       -1.7964584898       -7.1204710093
  H        14.1967172076       -2.7635058273       -6.7051814325
  H        15.2402158563       -1.6314313507       -7.3757099632
  C        13.2439965897       -1.5132067004       -8.1717379978
  H        12.2779128161       -1.1688857444       -7.8714983651
  H        13.0435117947       -2.4597466795       -8.5426060631
  H        13.6688382143       -0.9552960371       -9.0158904730
  H        -3.3288449850       15.1103277432       16.4826793461
  C        -3.0991925534       14.0430483759       16.4578282919
  H        -4.0603498557       13.5816051406       16.7115440491
  C        -2.0567602287       13.7578133314       17.6047316752
  C        -2.6996663459       13.4792154710       15.0714847099
  C        -2.6505135136       13.5058410689       18.9823381503
  H        -1.3546405891       13.0145553746       17.3657886598
  H        -1.3813628546       14.6195667280       17.6565113857
  H        -2.8938525408       12.4197394023       15.0025191174
  H        -3.2198794661       13.9616143759       14.2296800646
  H        -1.6884737264       13.6919196604       14.8092827346
  C        -1.6129587106       13.1041424458       20.0358813369
  H        -3.2100086211       12.5931298338       19.0084398371
  H        -3.2265921553       14.3764672218       19.4089863586
  C        -2.1824024204       13.2529584100       21.3737716121
  H        -1.1897672527       12.0765527265       19.8968749170
  H        -0.7434735058       13.6022413167       19.8299948826
  C        -1.2411768574       12.6767857009       22.4509193704
  H        -3.0555627711       12.6165908992       21.4382168274
  H        -2.5112749419       14.2922724886       21.5207326525
  C         0.0378553210       13.5847841700       22.6058457742
  H        -1.7972204842       12.6660437824       23.4155964373
  H        -0.9928088774       11.6292091323       22.1514019401
  C         1.1485017298       12.9293274343       23.4202926983
  H         0.4710218486       13.9965475154       21.7009743650
  H        -0.3091374572       14.4400704756       23.2189977208
  C         1.5645199200       11.6226767746       22.7562193600
  C         0.8063610535       12.2124063047       24.6964018615
  C         2.3949281389       13.8582363049       23.5514823008
  C         1.5183921946       10.5312629244       23.5698618541
  C         1.9752708492       11.3058894190       21.4881005363
  C         1.0111326578       10.8789854761       24.8279669441
  C         0.2698820546       12.7828824554       25.8722873501
  H         2.5593373018       14.3679391587       22.5615217788
  H         2.0003051825       14.6270723294       24.2521624858
  C         3.6836189024       13.1452478379       23.9753700859
  S         2.0357181428        9.0790915103       22.8101924487
  C         2.2575677340       10.0065585116       21.3550416411
  H         2.0933140486       12.1655863736       20.8018937469
  C         0.6318464150       10.2651393104       26.0201766632
  H         0.1240488993       13.7864921305       25.8043883134
  C        -0.0161659608       12.1897950927       27.0579499871
  H         4.0178662552       12.5118299348       23.1662396218
  H         3.4996356222       12.4586396742       24.7893475370
  C         4.6841990269       14.1118621586       24.4042674942
  C         2.7483623751        9.2651751184       20.0735256339
  C         0.0999982938       10.8449035420       27.2128776284
  H         0.6747720126        9.1692385933       25.9774885905
  C        -0.3044770233       12.5933163244       28.3206997583
  H         5.3197687579       13.8065018083       25.1985722061
  H         4.1935637133       15.0095036757       24.6569620990
  C         5.6479296787       14.5465017722       23.1891322009
  C         2.6433498070        7.8380774435       19.8146277842
  C         3.0296837132       10.1390738755       18.9293701735
  C        -0.2346684084       10.1555110567       28.4923094309
  C        -0.4765413788       11.5420872855       29.1805456627
  S        -0.6772025410       14.1278931855       29.0271913936
  H         6.2934759059       15.3554061767       23.5700616023
  H         5.0278910099       15.1417729780       22.5173214019
  C         6.5261462696       13.4308079379       22.5232878236
  N         2.1809462937        6.8439878466       20.7085431738
  C         2.7987226815        7.3606780951       18.5352754690
  C         3.2795606986        9.5897820185       17.6526923987
  H         3.1673612375       11.2248215496       19.0717050403
  C         0.9871313689        9.3474801267       29.1096510960
  C        -1.5745151872        9.3516599636       28.3945269663
  C        -0.9208178433       11.9735227518       30.4244467868
  C        -0.9755250560       13.3457902839       30.4871439723
  H         7.5985407045       13.6580851182       22.5976655468
  H         6.3405780615       12.4598919071       22.9243872844
  C         6.2628516268       13.4827967202       21.0193741461
  S         2.1670077442        5.3550081055       19.9344003016
  N         2.7644567135        5.9573104575       18.5292551625
  C         3.1430237254        8.1305446523       17.4050580833
  H         3.4517171132       10.3091497086       16.8935558788
  H         1.3949477669        8.7888170864       28.3158493012
  H         0.7347226185        8.6255228380       29.8344211867
  C         2.1456648440       10.2111211866       29.7579719543
  H        -1.4003972269        8.4557461024       27.8023965602
  H        -1.8609258890        9.0477115950       29.3753749475
  C        -2.7449824455       10.1357940506       27.8742825075
  H        -1.1251796965       11.2068629894       31.1809417159
  C        -1.3363587133       14.0546705782       31.7689937061
  H         5.6033576735       14.3762061215       20.7281754960
  H         5.6226194154       12.6104270595       20.8550127407
  C         7.5406300854       13.4147154917       20.2224138595
  C         3.4001651802        7.4698761753       16.1603960415
  H         2.4374622681       10.9918678191       29.0379959093
  H         1.7554439923       10.7606748736       30.6162595420
  C         3.2919965569        9.4298974895       30.3228553463
  H        -2.5174853072       10.7169216677       27.0482801938
  H        -3.0833073436       10.7568805339       28.6975965978
  C        -3.9340940317        9.2159513995       27.6204146264
  C        -1.4973496971       15.4720214551       31.9038900938
  C        -1.6198212753       13.3118170100       33.0313560362
  H         8.3476729585       14.1164216571       20.6279513615
  H         8.0205419131       12.4378413085       20.4513645339
  C         7.3270065809       13.5420856432       18.7043141621
  H         3.0984536387        6.4627257160       16.1764051864
  C         3.8377461443        7.8521141523       14.9274238121
  H         3.8055019584        8.9063574271       29.5314666974
  H         2.9155662960        8.6055129183       30.8938726732
  C         4.2861893125       10.2513854697       31.1280909848
  H        -3.8039861963        8.7563948430       26.6796550028
  H        -3.9278965308        8.5006591446       28.4467870640
  C        -5.2297016230        9.9322833465       27.4255510897
  N        -1.1704404134       16.4031143335       30.9603380818
  C        -1.7744215176       16.0717562222       33.1066276319
  C        -1.8807161636       13.9677092828       34.1883684580
  H        -1.6405623947       12.2155020615       33.0045420559
  H         7.1904423636       12.6254846321       18.1260132611
  H         6.4649832802       14.1415591156       18.4305895067
  H         8.2132508102       14.0411477571       18.2409893842
  S         4.3506301368        9.4620783507       14.5132411741
  C         3.8562686203        6.8839010680       13.8042865893
  H         4.2048762245       11.3051575697       30.7523891747
  H         3.8934018096       10.3281057555       32.1718123640
  C         5.7474378324        9.8374333997       31.1384220266
  H        -5.2878124637       10.7263309053       28.1656726481
  H        -5.9863711132        9.2333279239       27.6705824829
  C        -5.3924526950       10.4184916062       25.9908897872
  S        -1.4514417184       17.8949452006       31.5123444715
  N        -1.9331832215       17.3991528579       32.9721380041
  C        -2.0082910321       15.3935816970       34.2766545848
  H        -2.1322994109       13.3178802129       35.0349767006
  C         4.3181432110        8.9265374147       12.8754408421
  N         4.3126838032        7.5619437961       12.6522610932
  O         3.5049395395        5.7052493759       13.8596714478
  H         6.2638170579       10.4032093319       31.9409464568
  H         6.2087906434       10.0525350431       30.2065179022
  C         5.9736844613        8.3522136723       31.4462298313
  H        -4.5573079131       11.0223794016       25.8433574656
  H        -5.4308203754        9.5861559706       25.2958869055
  C        -6.7508354042       11.1614391572       25.9365827724
  C        -2.3017012272       16.2331346026       35.4692012211
  S         4.7729613758       10.0453475045       11.4772217332
  C         4.1947578553        6.9557181884       11.3961917837
  H         6.4580014267        8.2827473715       32.3836200152
  H         4.9994780236        7.8533941610       31.5669900151
  C         6.8676116958        7.5501321897       30.4280208870
  H        -6.5925303835       12.1383318536       25.4137079416
  H        -7.0158140766       11.3149277733       26.9363801291
  C        -7.8131969366       10.3694846589       25.2035225665
  H        -2.1754901837       17.3017129856       35.5224259829
  C        -2.9557243160       15.9143549433       36.6241704461
  H         4.5245524734        7.5337218994       10.5366707907
  H         4.6513430911        5.9716897495       11.2819239254
  C         2.7114699904        6.8730589451       10.9378936036
  H         7.8340744349        7.9278493495       30.1832543213
  H         6.3760546507        7.7088784144       29.4837208069
  C         6.9907666854        6.0335872208       30.7466351263
  H        -7.7255576713       10.4147210743       24.0886035538
  H        -7.6132795320        9.3135400054       25.2369340935
  C        -9.2434375656       10.5323723690       25.7199114127
  S        -3.6615509171       14.4197747662       37.1788379335
  C        -3.1318029464       17.0297968345       37.5656029755
  H         2.0017147162        7.0082310175       11.7228443179
  H         2.3802963995        7.6691609635       10.1836767742
  H         2.4780009065        5.9104839303       10.5160096218
  H         7.9598891838        5.7282405933       30.8809323702
  H         6.4582417716        5.4826350757       29.9656325809
  H         6.4787301592        5.7442376394       31.6044075111
  H        -9.9594677822       10.5520656774       24.9164355453
  H        -9.5147736078       11.2805353996       26.5214870694
  H        -9.4495137071        9.5624635986       26.2043811252
  C        -3.8998775132       15.1397122272       38.7221253884
  N        -3.6428891904       16.4991169860       38.7489915164
  O        -3.0506639219       18.2458936625       37.2784637857
  S        -4.2746647502       14.2532570192       40.2559630598
  C        -3.8228742538       17.3003373382       39.8999249586
  H        -4.0041131345       18.2983395558       39.6022402589
  H        -4.6274637143       16.9046948533       40.5190122691
  C        -2.5441699485       17.3799982604       40.7878853381
  H        -1.5483210535       17.4977036625       40.3068015261
  H        -2.5685055211       18.1501347860       41.5575911302
  H        -2.4592082086       16.4276501213       41.3209462672
