352
i=
  H         4.6291656158        1.5911812927       12.9563773656
  C         4.0112614483        2.4622619490       13.1511060524
  H         4.7250919288        3.2661455401       13.3051547663
  C         3.1554269648        2.6988677034       11.9373792744
  C         3.2357277435        2.3473697979       14.4954181130
  C         4.0008135126        2.9021819302       10.7269489777
  H         2.5924323514        3.6022513601       12.1701674636
  H         2.4443252561        1.8858224450       11.6757767762
  H         2.1627303434        1.9753648816       14.3813815289
  H         3.0599463829        3.2775251489       14.9901778373
  H         3.8658420670        1.6754052369       15.0610091756
  C         4.5350041588        1.6305651205       10.0353673367
  H         3.3526091048        3.4714591025       10.0040692121
  H         4.8769315199        3.5114193988       10.8476786640
  C         5.2709608278        1.8696767203        8.6926219677
  H         3.7679336297        0.8950934180        9.8237163122
  H         5.1375916356        1.0886277267       10.7710209611
  C         6.6062547145        2.6643350997        8.7281614995
  H         4.5919238128        2.3333443830        8.0118660366
  H         5.4354651989        0.9197504803        8.2933673455
  C         7.8756726431        1.9190013579        9.1988620554
  H         6.8805354908        3.0569423448        7.8170684476
  H         6.4205130393        3.5538125985        9.3212044312
  C         9.0985956180        2.8638692350        9.3460846241
  H         8.2514639481        1.1824626805        8.4476532930
  H         7.6138556182        1.3424485343       10.1724847873
  C         8.7490843065        4.2111548584        9.9930348579
  C         9.5284706227        3.5455195737        8.0636347724
  C        10.3093303792        2.1153196132       10.1034646461
  C         9.0278084021        5.3364381726        9.2279785565
  C         8.3265170360        4.6069059808       11.2986222853
  C         9.5458581661        4.9159305584        8.0150313582
  C         9.9366776426        2.9554885056        6.8479043353
  H         9.8689854835        1.4589212568       10.8953704270
  H        10.8441836022        1.4251009632        9.3674040732
  C        11.4264171104        3.0490468221       10.6522202866
  S         8.6332831978        6.7849737413        9.9515351569
  C         8.1891823078        5.9739167836       11.4138715728
  H         8.2418216354        3.8548038238       12.0485351595
  C         9.9702638920        5.6007961131        6.8482452416
  H        10.1010046186        1.8784613019        6.8851287172
  C        10.4077676985        3.6452403036        5.7686650937
  H        10.9424951248        3.8497906060       11.2610433307
  H        11.8785108388        3.4938539090        9.7338278936
  C        12.4754406551        2.3217652501       11.4687611470
  C         7.7711138854        6.6911250869       12.6913024606
  C        10.3945915866        4.9903899470        5.6613823021
  H         9.9210808717        6.6975143855        6.9059327567
  C        10.8461219612        3.2341372259        4.5545648970
  H        13.3213417739        3.0130142847       11.6331385259
  H        12.8476288130        1.4081824914       11.0224544941
  C        12.0409988820        2.0876712617       12.8388112104
  C         7.8407776360        8.0348727486       12.9946926765
  C         7.1777301040        5.8081493791       13.7853276359
  C        10.9353193205        5.6520828392        4.3835212814
  C        11.1589382151        4.3292904896        3.7287874570
  S        10.9895838022        1.6980847925        3.8029910106
  H        11.2813967352        2.7398711491       13.1843700728
  H        11.6253764631        1.0824557152       12.8999758940
  C        13.2411626876        2.1502899581       13.7949431187
  N         8.1436442754        9.0262898976       12.1113146412
  C         7.5466917965        8.5503797198       14.2668985480
  C         7.0476390809        6.1853633384       15.1188162910
  H         6.8846546903        4.8311762497       13.5399525101
  C        12.2054398489        6.4076548146        4.6304105799
  C         9.8008282464        6.4369191025        3.6899526748
  C        11.5534363233        3.9242348543        2.4384093275
  C        11.4307311281        2.5072715105        2.2940436901
  H        13.6005106900        3.1477307199       13.8602465451
  H        14.0579298890        1.5599402355       13.3715678596
  C        12.7875450313        1.6949964677       15.1758490792
  S         7.8478559576       10.4801490020       12.7921151956
  N         7.5982504789        9.9704196769       14.2814041364
  C         7.1990298439        7.7266812877       15.3626867977
  H         6.7261293707        5.4947395657       15.9183687859
  H        12.1263580031        6.7578934965        5.6770612789
  H        12.1349195793        7.2768217301        4.0006329938
  C        13.5911887102        5.6987981166        4.6583749129
  H         9.5624448357        7.2498038235        4.3967746307
  H        10.2905200422        6.8948986886        2.8388359573
  C         8.5227072052        5.6737307092        3.3624459827
  H        11.8889817152        4.6740637111        1.6767005746
  C        11.6851844972        1.7562360527        1.0196271274
  H        11.7166407913        1.9901149123       15.3176609766
  H        12.9648862418        0.5803275369       15.1885792417
  C        13.4455022432        2.4045511008       16.3879034880
  C         6.9455830491        8.3555357731       16.6310191405
  H        13.5135949104        5.0979391373        5.5668497025
  H        13.7151208268        4.9972514825        3.9382790464
  C        14.7721951833        6.6720556119        4.5529917909
  H         8.2944504068        5.1835525216        4.2604214926
  H         8.8600077565        4.8823477176        2.6211784427
  C         7.4125972004        6.6000713103        2.8558709217
  C        11.7623708702        0.3374381411        0.9278822949
  C        11.9983381789        2.4750248434       -0.2640569108
  H        13.1084059115        3.4307516613       16.5036586209
  H        14.5067821132        2.5424278194       16.2192672502
  C        13.0258217054        1.6817177945       17.6761875044
  H         7.0508233219        9.4318663724       16.5270021302
  C         6.5585721311        7.8964577283       17.8367565853
  H        14.5758008318        7.4180911511        5.2423620038
  H        14.9380008633        6.9740104378        3.5176158359
  C        16.0979986470        6.1111471526        4.8958747976
  H         7.2710412664        7.3998850227        3.6054453882
  H         7.6744541878        7.0210831796        1.8580923425
  C         6.1326612752        5.7958769107        2.7000756088
  N        11.5779829648       -0.5557606415        1.9878328124
  C        12.0121644212       -0.3300654670       -0.2784974145
  C        12.0863666146        1.7578430961       -1.4758052603
  H        11.9153512604        3.5321954893       -0.2886110685
  H        12.0742455851        1.2462162826       17.6627016046
  H        12.9779428503        2.3471202946       18.4645206239
  H        13.7499808368        0.9421095306       17.8286635653
  S         6.2062887654        6.3216690378       18.4378611736
  C         6.5832728349        8.9201640822       18.9128240173
  H        16.1143746320        5.1485222835        4.4326865240
  H        16.8662019489        6.7203540649        4.3898870499
  C        16.2553858267        5.8237164023        6.3557697452
  H         5.6986109579        5.5701520129        3.6782056218
  H         6.3158445336        4.8848409045        2.1241211707
  C         5.1546450879        6.4588878792        1.6844496961
  S        11.8266793596       -2.0209097693        1.4688344151
  N        12.1241142624       -1.6604257336       -0.0688451618
  C        12.1099169355        0.2692867332       -1.5249718560
  H        12.2605086900        2.4303940940       -2.3195936488
  C         6.2047893932        7.0142299347       20.0241174031
  N         6.1759043142        8.3258749203       20.0766926070
  O         6.8226039940       10.1745957346       18.7653056391
  H        16.1784637317        6.8373789436        6.8725009270
  H        15.4163004033        5.2315191244        6.7220829426
  C        17.5862100035        5.0781610186        6.7286657558
  H         5.7046949165        6.7194483000        0.8017049098
  H         4.3324878239        5.7452567266        1.5245767575
  C         4.4040734282        7.6579524818        2.1897319831
  C        12.3219856892       -0.5510077329       -2.6920510508
  S         5.9726656354        6.1266970227       21.4989474631
  C         6.0717517013        9.0718015414       21.3146870252
  H        17.4716862385        4.3867719157        7.4779781156
  H        18.0279100046        4.5566112193        5.9041515848
  C        18.7212670482        6.0256557272        7.2043405068
  H         4.7893175101        8.0173472498        3.0699013713
  H         3.4290512268        7.3297374867        2.4551397982
  C         4.1730968779        8.7369206327        1.1693370049
  H        12.1627028959       -1.5952297693       -2.5677302457
  C        12.7238645039       -0.3031217723       -3.9761575719
  H         5.3563919126        8.6073125983       22.0299705427
  H         5.5315703854        9.9814462132       20.9040655784
  C         7.3380215117        9.3016502441       22.0821008814
  H        19.0337710333        5.7537602552        8.2138473177
  H        18.1918587640        6.9322110958        7.2403711999
  C        19.8990883780        6.1443962854        6.2478994348
  H         5.0948482998        9.2676346841        1.0465339609
  H         3.8613562454        8.2942836277        0.1804940708
  C         3.2938542318        9.8747201158        1.7250776763
  S        13.3438540087        1.2192233012       -4.5343685075
  C        12.8095317339       -1.4565341002       -4.9166143536
  H         7.9259716180       10.0203832628       21.5387636583
  H         7.8719497828        8.3209657996       22.1778172509
  H         7.0933876692        9.6604180488       23.0351468778
  H        20.8411678434        6.6219160326        6.7197975461
  H        20.2021032819        5.1991234384        5.7987849303
  H        19.6773139131        6.7149416933        5.2659288976
  H         3.9070229548       10.7128659432        1.3316342056
  H         2.2842865785        9.8981651434        1.2618977586
  H         3.1549812437       10.0135094136        2.7771911100
  C        13.6724586723        0.4020418110       -6.0415719530
  N        13.4848162666       -0.9756936130       -6.0290150727
  O        12.6656717524       -2.6525154906       -4.5596866477
  S        14.2422686695        1.1298170119       -7.5582790262
  C        13.6763514897       -1.9458529973       -7.0555547817
  H        13.9148067827       -2.9230990175       -6.5694037513
  H        14.5822084709       -1.6261056001       -7.5750556893
  C        12.3849675090       -2.0103425800       -7.9857086828
  H        12.4544057887       -1.3416862683       -8.8779269216
  H        11.4248204295       -1.7560504824       -7.5033935188
  H        12.4112763188       -2.9912200354       -8.3834235656
  H        -3.5948242816       14.6166478453       16.4298362794
  C        -3.1678963168       13.6512891254       16.4419193054
  H        -3.8912915076       12.9897346797       16.8157725004
  C        -2.0207971296       13.4689922183       17.4683411513
  C        -2.8372407201       13.1937181447       15.0203153369
  C        -2.2577383458       14.0351236123       18.8977632902
  H        -1.8942934966       12.4029030126       17.4456645378
  H        -1.1301508007       13.8931751267       16.9638037581
  H        -2.4826553789       12.1075836401       14.9894555483
  H        -3.6657940072       13.2810108303       14.2948288708
  H        -2.0971266062       13.8232097383       14.5214286719
  C        -1.9408890435       13.1009142972       20.1063657318
  H        -3.2182804996       14.3129061991       18.9223414036
  H        -1.7397169817       14.9704929114       18.9832705759
  C        -2.1853075128       13.7016430904       21.4727308859
  H        -2.6130304711       12.2448444074       20.0353944267
  H        -0.9290348896       12.8525619943       20.0339235741
  C        -1.3239831898       13.1606808812       22.6055357911
  H        -3.2458372736       13.5810768828       21.5806900008
  H        -2.0507254124       14.7660844718       21.4422800193
  C         0.0175014905       13.8841482187       22.7284723023
  H        -1.9097229314       13.2677061404       23.5218961498
  H        -1.0937218502       12.1402022270       22.4879480683
  C         1.1578885482       13.0799474180       23.3769903560
  H         0.2040487919       14.2872558345       21.7765903346
  H        -0.1293958220       14.8404901376       23.3193373137
  C         1.4837837520       11.7189785329       22.6901956628
  C         0.6960021970       12.3893485394       24.6337982019
  C         2.4085130772       13.9238367039       23.5764572624
  C         1.1863717978       10.6352907683       23.4218115248
  C         2.1183858473       11.3044568722       21.4888325396
  C         0.6223710731       11.0248253467       24.6786717603
  C         0.2496117631       12.9835040449       25.8069804220
  H         2.5504190474       14.6096021220       22.7053881553
  H         2.1838053352       14.6979256918       24.3478896040
  C         3.6774748173       13.1339339447       23.8721340028
  S         1.6182301119        9.0801823787       22.8057625158
  C         2.1138807589        9.9344365146       21.4040112588
  H         2.5290409039       12.0657766943       20.7810936582
  C         0.1127731945       10.4342751605       25.7842146644
  H         0.1981180257       14.0856659104       25.7641912715
  C        -0.2823698059       12.3828962821       26.8968634179
  H         3.9933815188       12.4170615531       23.0650494500
  H         3.5378336667       12.4059638284       24.7026202474
  C         4.9869153116       13.9357256409       24.2967520790
  C         2.5306266219        9.2970528418       20.1053030039
  C        -0.3045574760       11.0540183232       26.9755751664
  H         0.1877985339        9.3620274244       25.7671747050
  C        -0.7793082519       12.7792540024       28.0857096950
  H         5.5798412779       13.3569200531       24.8866501804
  H         4.7007767094       14.8113540638       24.8591293499
  C         5.8038361034       14.2907563567       23.0607858552
  C         2.5935093468        7.8867078725       19.9176370957
  C         2.9304487288       10.1392348362       18.9654471759
  C        -0.8210673658       10.3603619805       28.2607107247
  C        -1.0153142448       11.7671347367       28.9701535655
  S        -0.9252538213       14.3558621322       28.7155910764
  H         6.5714330966       15.0518282396       23.3188968126
  H         5.2570893855       14.6910903074       22.1520608368
  C         6.6158928087       13.1522248269       22.5012369930
  N         2.2190055644        6.9345337268       20.8152619894
  C         2.9110990434        7.3823570795       18.6212433534
  C         3.2796489909        9.6384265906       17.7375630448
  H         2.8374670032       11.1728059695       19.1309267069
  C         0.3874738677        9.5525204171       28.8485477652
  C        -2.1311680653        9.5479145056       28.0400029529
  C        -1.5349316096       12.3178528714       30.1724468690
  C        -1.3237355475       13.6808626194       30.2685360339
  H         7.6334569218       13.3744934830       22.4517338523
  H         6.5608922330       12.3364474857       23.1906256619
  C         6.2838230861       12.7259754299       21.0283889078
  S         2.4198844969        5.5299940437       20.0527721944
  N         2.9334841263        6.0134314824       18.6024612626
  C         3.3335269963        8.1798790054       17.5085619917
  H         3.4869162291       10.4276808643       17.0542016492
  H         0.9403616329        9.1328517269       28.0083988646
  H        -0.0350721295        8.6900727336       29.3847789033
  C         1.2291206500       10.4807480065       29.7282748666
  H        -2.0348105069        8.7890911916       27.2519119484
  H        -2.5382960581        9.0986660447       28.9500084339
  C        -3.2864500324       10.4972977708       27.5334410561
  H        -1.9051938035       11.6633770071       30.9303946511
  C        -1.6222802259       14.4512480198       31.5590429009
  H         5.2512994939       12.2876645557       20.9722862457
  H         6.9199040352       11.8472131867       20.8933533919
  C         6.4719328564       13.8512068817       20.0454010735
  C         3.5097240255        7.5396418243       16.2542114387
  H         1.4488774354       11.3865679348       29.2134758642
  H         0.7881194819       10.7022895332       30.6593452572
  C         2.5946757309        9.6716840484       29.9709768556
  H        -2.7861860920       10.9304432140       26.6214941123
  H        -3.4746165839       11.3117185856       28.2525853370
  C        -4.4644259163        9.5902387449       27.1830820181
  C        -1.6759407804       15.8471331790       31.6828136595
  C        -2.0310291249       13.7110587510       32.7180536229
  H         5.5322603431       14.3285554438       19.8416578847
  H         7.2200871513       14.4209505173       20.5190377887
  C         6.9701453640       13.3450102701       18.7104411024
  H         3.3364209034        6.4747585869       16.2876326286
  C         3.9311784655        7.9856833934       15.0365897915
  H         3.1316314954        9.6508740034       29.0071703539
  H         2.3474108533        8.6812276128       30.1887291848
  C         3.4830038672       10.3068969641       31.0089026627
  H        -4.2101346209        8.9174857048       26.3701689061
  H        -4.6236183405        8.9213218078       28.0501058082
  C        -5.6227553948       10.5440344269       26.7144060989
  N        -1.4314926477       16.7369073646       30.6574755835
  C        -2.0839560896       16.4796754544       32.8454440433
  C        -2.3121830228       14.3568375943       33.8946619165
  H        -2.1899307175       12.6274918602       32.7280384210
  H         7.2705526285       14.2140308879       18.0990658288
  H         7.8939007400       12.7673607239       18.7386551153
  H         6.1284354896       12.8106650077       18.2658299484
  S         4.1632423810        9.5905855571       14.5808594378
  C         3.9916856713        7.0103389225       13.8885071694
  H         3.4640510202       11.3849799086       30.7632760065
  H         3.0728821082       10.2873531998       32.0544672367
  C         4.8906831679        9.7308159998       31.0498314540
  H        -5.1693630562       11.3741047498       26.2471547977
  H        -6.0824024007       10.9422023501       27.6379668737
  C        -6.6417808610        9.7503469227       25.9235033616
  S        -1.4354439909       18.2284616383       31.2739308527
  N        -1.8887090624       17.8689958365       32.7309443201
  C        -2.3101028755       15.8180080222       34.0615442074
  H        -2.6153673317       13.8119373734       34.7409126106
  C         4.4705272430        8.9842409416       12.9474824357
  N         4.4244716102        7.6399768293       12.8113057127
  O         3.7042151852        5.8050490874       13.9475238447
  H         5.4729849073       10.3590672676       31.6991725572
  H         5.4381223385        9.8972223924       30.0611470502
  C         4.9741967781        8.2415810981       31.3238052477
  H        -6.0965109743        9.3215857026       25.0905200430
  H        -7.0958128725        9.0254452299       26.4741453411
  C        -7.6420094925       10.7153090816       25.2767359084
  C        -2.5521775662       16.5441023581       35.2771346636
  S         4.6061526353       10.0401999194       11.5660996579
  C         4.5666947776        7.0051531515       11.5065626382
  H         5.9079746484        8.2603312570       31.8831734646
  H         4.2099724158        7.9373627951       32.0226157095
  C         4.8857154332        7.3626655545       30.0804828459
  H        -7.1154757760       11.2553740281       24.5107788963
  H        -8.0882520070       11.3594130031       26.0525582576
  C        -8.7685074080        9.8926938028       24.6394020898
  H        -2.3284069957       17.5786645684       35.1306141241
  C        -3.0060370792       16.1851626997       36.5201264885
  H         5.2343712156        7.3921549829       10.7678157832
  H         5.1037216805        6.0866829034       11.7366350708
  C         3.1183806793        6.7806483731       10.9259240198
  H         5.4634731219        7.8045423536       29.2449999732
  H         3.8727238455        7.2168833767       29.7233777885
  C         5.4436806613        5.9950012288       30.4410040869
  H        -9.1822299506       10.3949627160       23.7849320032
  H        -8.3802331729        8.9710941957       24.2703504615
  C        -9.8642132683        9.6769677034       25.6328006610
  S        -3.6542227390       14.6252323924       37.0001167543
  C        -3.0200028241       17.2502313021       37.6202936359
  H         2.9213365019        5.7502481590       10.7057032692
  H         2.2862713656        7.1809596860       11.4872866905
  H         3.0200310349        7.2827373022        9.9233435231
  H         5.2812016137        5.4120324107       29.4965089305
  H         5.0746369699        5.5253015089       31.3294853079
  H         6.5299989707        5.9969412584       30.4745459612
  H        -9.5161946735        9.3427872834       26.5904545597
  H       -10.5502191526        8.8989849945       25.2667417380
  H       -10.3759555146       10.6072313873       25.8428515786
  C        -3.9463397738       15.4481325058       38.6172971988
  N        -3.6002673261       16.7866549754       38.7248730208
  O        -2.6381655781       18.4571401086       37.5101772829
  S        -4.6105685233       14.7138874407       40.0755129147
  C        -3.6094134360       17.5802114663       39.9604981094
  H        -3.7209725660       18.6302691144       39.6861499189
  H        -4.5365551089       17.3035786244       40.5111442670
  C        -2.2734298578       17.4768876835       40.7585082446
  H        -1.7370073068       18.4157995851       40.8129498801
  H        -2.3641396896       16.9864731864       41.7606897761
  H        -1.6349596488       16.8506034735       40.1335905837
