352
i=
  H         3.0583068667        3.5208250045       12.9436973824
  C         2.8300373785        2.4907048486       12.7067059815
  H         2.0043913033        2.2844485321       13.3971202144
  C         2.5676604823        2.3063826137       11.1685187268
  C         4.0295880266        1.7484424151       13.2984146117
  C         3.9207419381        2.4036103622       10.3773680423
  H         1.8628649216        3.0553100575       10.8575719389
  H         2.0778661921        1.3420157237       10.9701882644
  H         4.2734688726        0.9740198297       12.5856849422
  H         3.6512579857        1.4657650850       14.2923243140
  H         4.8617465935        2.4313777774       13.3932139634
  C         4.3435502735        1.1756047727        9.5181702807
  H         3.6633149909        3.2192276385        9.6940874725
  H         4.8005262040        2.7470956152       10.9798400061
  C         5.0468821050        1.5880066399        8.1627600443
  H         3.3912749449        0.7172428378        9.2322437560
  H         4.8734312474        0.4198404275       10.0455642590
  C         6.2571562943        2.5157423569        8.3787661033
  H         4.2866219556        2.1355809985        7.5679548794
  H         5.2206451499        0.7534458955        7.4993728686
  C         7.3869407568        1.9098998238        9.1238448746
  H         6.6428966858        2.8289736983        7.4153634898
  H         5.9371268173        3.4672557134        8.8859008589
  C         8.7007031382        2.6678818317        9.2900820693
  H         7.6752533704        1.0215142531        8.6352708947
  H         7.2216893959        1.8101365160       10.1780858016
  C         8.4413231843        4.0338072615       10.0030345164
  C         9.2029213319        3.3868496896        8.0407414129
  C         9.8279930763        1.9370882350       10.0315630296
  C         8.8241393260        5.0980261416        9.2067991644
  C         8.0184623187        4.3993516806       11.3115058513
  C         9.2462100876        4.7411580019        7.9317543817
  C         9.7876974588        2.7838115665        6.9383533878
  H         9.4875568581        1.4920165842       11.0183358727
  H        10.1833661432        1.0957633681        9.4610154873
  C        11.1899141823        2.6793129217       10.2181166374
  S         8.6271974948        6.5841892883        9.9910688744
  C         7.9861093937        5.7551133732       11.3747908491
  H         7.7820176412        3.7513626068       12.0718302063
  C         9.7531627601        5.3318302641        6.8215397961
  H         9.7391350795        1.6842067012        7.0266496972
  C        10.2001512456        3.3671680674        5.7728444960
  H        11.0614966232        3.7256966047       10.4990995720
  H        11.6984079886        2.7380253641        9.2277077780
  C        12.1130077273        2.1033509905       11.3097588679
  C         7.5084612138        6.5620626581       12.5376859765
  C        10.2434026294        4.6786826185        5.6756620903
  H         9.7408685261        6.3811083036        6.7508790931
  C        10.6893833930        2.8832111562        4.5604530778
  H        13.1000775731        2.1961867573       10.9267764596
  H        11.8360055288        1.0473633160       11.4274313348
  C        11.7948787547        2.7948961586       12.6181544529
  C         7.5198171198        7.9967500709       12.6619390061
  C         7.0520966820        5.8243747406       13.7360529945
  C        10.6889040131        5.3650584586        4.3981453117
  C        10.9417448745        3.9277326387        3.7091444825
  S        10.8679124908        1.3931308117        3.7670619160
  H        12.0103775477        3.8678869479       12.6343651915
  H        10.7842739219        2.8122401180       12.8828509962
  C        12.4790844536        2.0750231491       13.7546531011
  N         7.8768644527        8.8483230714       11.6512577005
  C         7.1611820904        8.6867889307       13.8101112350
  C         6.8903483123        6.4969064726       14.9255813017
  H         6.8739172905        4.7600570616       13.7400363181
  C        11.9552407979        6.2792383712        4.5383759687
  C         9.5102749636        6.2084647360        3.8026424046
  C        11.4345355781        3.5182225683        2.4085247502
  C        11.3712315449        2.1640935477        2.2996002951
  H        13.4952852353        2.3643186045       13.6625571882
  H        12.2685912815        1.0329196280       13.6798718444
  C        12.1011984045        2.6460045564       15.1180689715
  S         7.7321222738       10.3860353280       12.1760448444
  N         7.2463033168       10.0315441184       13.7337379293
  C         6.9086965715        7.9810048477       14.9794608687
  H         6.6079988242        5.9057845245       15.7757785295
  H        11.6409397501        7.1757341096        5.0402931314
  H        12.3534961489        6.6894359545        3.5556437219
  C        13.0694567044        5.6877209203        5.3277773130
  H         9.2513607048        7.0393772136        4.4671716512
  H         9.9227205923        6.7432788870        2.9515314063
  C         8.2637815504        5.4607635182        3.4239782587
  H        11.5650898172        4.2506090371        1.6962503053
  C        11.7653166566        1.4105273540        1.0853618240
  H        12.0725250107        3.7346520580       15.1456204981
  H        11.1542081631        2.2950282994       15.3679785711
  C        13.0754227855        1.9854330827       16.1460225286
  C         6.6256319631        8.7145611762       16.2016875013
  H        12.8888634189        5.7659472936        6.3668875352
  H        13.2708306325        4.6329505729        5.1406666940
  C        14.3274519798        6.3956521243        4.9424399302
  H         8.0282177822        4.7226970319        4.2167201663
  H         8.4898836063        4.8466275687        2.5802060217
  C         7.1030150901        6.3114493396        2.9522600928
  C        11.7330987808        0.0052413256        0.9311350278
  C        11.9998868375        2.1208700222       -0.2164051910
  H        14.1512345860        2.1536845241       15.9810620535
  H        12.9828286409        0.9185058842       16.0685838657
  C        12.7371032114        2.4710493903       17.5861283201
  H         6.6965443641        9.8060161497       16.1370364200
  C         6.4159927666        8.3685714735       17.5196452889
  H        14.0277585000        7.4340520170        4.9215456855
  H        14.8240418127        6.0957840976        3.9822032555
  C        15.4534102844        6.1714034466        5.9651449063
  H         6.1869604311        5.7089917391        3.0232465241
  H         6.9106884860        7.1397623808        3.6785614800
  C         7.2684411724        6.9395879468        1.5969634348
  N        11.5998799809       -0.8944605062        2.0088286132
  C        11.9695721234       -0.7120878160       -0.2918636258
  C        12.2576258288        1.4782878524       -1.4448162708
  H        11.9012428604        3.1932227986       -0.2073318464
  H        13.4777145650        2.0897388124       18.2152751953
  H        11.7851434965        2.2011306549       18.0038146150
  H        12.8195367932        3.5395277131       17.7127280673
  S         6.3813531035        6.7703298805       18.2283608250
  C         6.2722427611        9.4746601835       18.4516030470
  H        15.8711468922        7.1712391264        6.1004886523
  H        15.0618693570        5.9180815367        6.9090304153
  C        16.5939362107        5.2357135927        5.4229735179
  H         7.7352911987        6.1482292733        1.0134810064
  H         7.8527822984        7.8717550800        1.7136839329
  C         5.8043396039        7.2429018322        1.1319023176
  S        11.4998058769       -2.4147301235        1.3760478803
  N        11.7803397670       -2.0923018886       -0.1984213535
  C        12.2657726259       -0.0328415629       -1.4951988164
  H        12.4026178511        2.1647894400       -2.2837001328
  C         5.9936190488        7.5892431259       19.7397393882
  N         5.9986416186        8.9528329394       19.7107664147
  O         6.3361288055       10.6881930572       18.2391263075
  H        16.2024478478        4.5015704950        4.6652733595
  H        17.2730438234        5.8384720440        4.8169123943
  C        17.3928395285        4.6025896003        6.6073710142
  H         5.9411759799        7.7571161119        0.1903323976
  H         5.2455939138        6.3417117721        0.9020271381
  C         5.0660383800        8.2001843470        2.0846050462
  C        12.6393099103       -0.8584525213       -2.5663675330
  S         5.6306492405        6.8000795105       21.2901343674
  C         5.8635346722        9.7468921848       20.9139213132
  H        16.6920690596        4.1604195101        7.3349289008
  H        18.0356119418        3.8101206416        6.3254232235
  C        18.2886105887        5.5410653654        7.3830594720
  H         5.6595706353        8.7024386866        2.7581161859
  H         4.4514315554        7.5894188214        2.7794987022
  C         4.2394035798        9.2967213033        1.3244267106
  H        12.3237379692       -1.8397521762       -2.4460807487
  C        13.2374727072       -0.4637212683       -3.7587484633
  H         5.1526282640        9.2892933357       21.5628401307
  H         5.4656650319       10.7285722509       20.6612582644
  C         7.2467325746       10.0308306927       21.5250990278
  H        18.5203186634        5.0319275495        8.3451021499
  H        17.6590333869        6.4492758304        7.4724559487
  C        19.6592164277        5.7047645516        6.6058704381
  H         4.7084517974       10.2250317414        1.1097948669
  H         3.9265925332        8.8916883567        0.3403896673
  C         2.9945596342        9.5998323185        2.1877030703
  S        13.9488844706        0.9980899181       -4.2127424906
  C        13.3370297160       -1.5715925524       -4.7034784409
  H         7.9147055400       10.6413192003       20.8770387400
  H         7.7129350010        9.2015108292       21.9889039475
  H         6.9177532259       10.6875836355       22.3214114584
  H        19.6572243535        6.1432524846        5.6006888246
  H        20.4229937404        6.2102346641        7.1478018690
  H        20.0070842193        4.7594614967        6.4717145909
  H         2.1754299530        8.9328137599        2.0197476143
  H         3.2983174387        9.5184306045        3.2166141797
  H         2.8000756461       10.6824821962        2.0361552151
  C        14.2922479467        0.1790397611       -5.6638190415
  N        14.0270111925       -1.1086803831       -5.7495750298
  O        12.9580561441       -2.7478604280       -4.6525548223
  S        14.7345135060        0.9304623554       -7.2027651418
  C        14.2047736687       -1.9387415801       -6.9510664828
  H        14.3499076501       -2.9503723525       -6.6518751536
  H        15.0721136639       -1.6137534502       -7.3813639807
  C        13.0962627755       -1.6258425834       -7.9667276121
  H        13.2646988540       -0.6040400595       -8.4055256948
  H        12.1647059825       -1.6111196657       -7.5155084350
  H        12.9848177096       -2.3390387011       -8.7260493823
  H        -1.6168550870       12.9735904940       17.4510753450
  C        -1.9977329364       13.8947354702       16.9490133972
  H        -1.1504580545       14.3497105451       16.4957849723
  C        -2.5960130240       14.7897018082       17.9815207195
  C        -2.8473666540       13.4354877072       15.7569506764
  C        -3.4621367837       13.9051331003       18.9844052875
  H        -1.7671772014       15.3667509122       18.4951970820
  H        -3.2405360714       15.5625762243       17.5141130183
  H        -2.3266092866       12.8849147432       14.9309936669
  H        -3.7291629544       12.8245720299       16.0403506745
  H        -3.2858366837       14.2612963027       15.1931379147
  C        -2.5486455612       13.0967871650       19.9272149762
  H        -3.9582399529       13.0939885295       18.3985539361
  H        -4.1077585267       14.5831542205       19.5013240075
  C        -2.9717001526       13.0408894317       21.3941761287
  H        -2.3453681527       12.0982547167       19.6041326640
  H        -1.5481013684       13.5417519919       19.8462929260
  C        -1.8125109251       12.5680822738       22.2408072202
  H        -3.8584899051       12.3606986926       21.4974804909
  H        -3.2701323668       13.9899677962       21.7837106632
  C        -0.6865391755       13.5409535277       22.7382028589
  H        -2.2651304667       12.0596972939       23.0721275808
  H        -1.2698418603       11.8030827236       21.6326940510
  C         0.5354542752       12.8969965365       23.4480992594
  H        -0.3641519435       14.2840528734       21.9243608707
  H        -0.9516699804       14.2848214882       23.4257377615
  C         0.9889228587       11.6234218254       22.7570771692
  C         0.2227780744       12.1304395218       24.6826435438
  C         1.7713798142       13.8769996507       23.6515885823
  C         0.8920465134       10.4813153888       23.5112830448
  C         1.5139121878       11.3142408330       21.5292909274
  C         0.3355626547       10.8178842185       24.7613858285
  C        -0.2683529630       12.6720385918       25.8741259010
  H         1.9677146359       14.4547658651       22.7374822526
  H         1.3654660083       14.5877273812       24.3802533811
  C         3.1525520932       13.2324072535       24.0808045401
  S         1.2325775846        9.0388052897       22.6939544723
  C         1.7468969278        9.9914198593       21.3259770564
  H         1.7489882656       12.0723355824       20.8326915854
  C        -0.1007314685       10.1330402774       25.9015488021
  H        -0.3508105698       13.7791750346       25.7917622940
  C        -0.5584293463       12.0783012557       27.0147504449
  H         3.5030226160       12.4317659452       23.4652856812
  H         3.1651551644       12.7818943559       25.0721067135
  C         4.2198811222       14.2599938740       24.2471736596
  C         2.2744056135        9.3423000243       20.0834359468
  C        -0.6026718749       10.7521539953       27.0729090469
  H         0.0081545355        9.0705142914       25.9249302189
  C        -1.0262579505       12.4904639719       28.2414727000
  H         4.9977187150       13.9615805366       24.9455678658
  H         3.7462888570       15.1292466805       24.7655396201
  C         4.7839083619       14.8494690611       22.8941213457
  C         2.4887902302        7.9541952300       19.8118437416
  C         2.7142314044       10.1868341073       18.9873162830
  C        -1.0367459002       10.0775838585       28.3812497449
  C        -1.2570475778       11.3921077827       29.0237750405
  S        -1.3765716925       13.9605855180       28.9704809990
  H         5.2524621015       15.7616305595       23.2273062339
  H         4.0020395820       15.2165989788       22.2157652742
  C         5.7390136456       13.8912745308       22.1447436384
  N         2.1172982687        6.9269503042       20.6841819866
  C         2.9105631975        7.4248045402       18.6012433831
  C         3.0654773637        9.6521967578       17.7778825379
  H         2.5992825615       11.2123524777       19.1877527668
  C         0.1012639180        9.2591356144       29.0898972445
  C        -2.3582099784        9.2515100228       28.1675522561
  C        -1.6808941285       11.8386387090       30.3343243019
  C        -1.7271262591       13.2078280816       30.4587078177
  H         6.7851207850       13.9695838070       22.5291901620
  H         5.4597984824       12.8506905521       22.3011234205
  C         5.7405271349       14.1346668313       20.6205846960
  S         2.3353287244        5.4637074076       19.9587531241
  N         3.0453973737        5.9964168093       18.6013061064
  C         3.1614721596        8.2214277592       17.4949483659
  H         3.2802860620       10.3927970396       16.9902274675
  H         0.4062249329        8.3817779373       28.4953793267
  H        -0.3484542452        8.7932450244       29.9992140232
  C         1.3468782479        9.9764972844       29.4560313813
  H        -2.1068159249        8.3925221769       27.4649303519
  H        -2.6170353822        8.8370265328       29.1527415374
  C        -3.6115220723        9.9884128454       27.5787065351
  H        -1.8294021843       11.1428780890       31.1050655540
  C        -1.9649608678       13.9510602489       31.7327016878
  H         5.5159412574       15.1569019271       20.4024077770
  H         4.9404238284       13.5569033571       20.1201452348
  C         7.0602611254       13.7611662442       19.9798945272
  C         3.4075088147        7.5395658712       16.2581706630
  H         1.9088926190       10.2113517677       28.5652960586
  H         1.0567912735       10.9721277911       29.8102529436
  C         2.2702197944        9.1121523625       30.3643879756
  H        -3.4331844889       10.5783563419       26.6928706920
  H        -3.7812888165       10.7095089228       28.4100336841
  C        -4.8376985823        9.1181131339       27.5008199745
  C        -2.1550370720       15.3136850052       31.8632679929
  C        -2.2103783875       13.1572519866       32.9981544944
  H         7.9121263157       14.3975527222       20.3172041293
  H         7.2535307822       12.7021685232       20.2120007719
  C         7.0452181393       13.9050002786       18.4516282254
  H         3.2560529189        6.4339402700       16.3256014472
  C         3.5704011075        7.9362712591       14.9377125509
  H         2.7732133091        8.3990881449       29.7256979829
  H         1.6728698898        8.5183577668       31.0564677871
  C         3.1782400498       10.0241499227       31.1380797407
  H        -4.6625953229        8.1706554750       26.9888029332
  H        -4.9619665359        8.6514265184       28.5192907080
  C        -6.0575195672       10.0440236264       27.1897436711
  N        -1.9438696374       16.1518762867       30.8247183002
  C        -2.4087388171       15.9359745458       33.0612945887
  C        -2.5865312956       13.8174036451       34.1488880738
  H        -2.1174202590       12.0857124802       33.0307095848
  H         6.6548386718       14.8554721799       18.3234513829
  H         8.0359571296       13.8387238942       17.9036998456
  H         6.4017025734       13.1835134130       17.9688307554
  S         3.8903759594        9.4954518596       14.3207972607
  C         3.6273371226        6.8582376272       13.9096840737
  H         3.0966337264       11.0596223910       30.7262709016
  H         2.9440228799       10.1450287475       32.1775666531
  C         4.6266712012        9.7892084151       31.1022447590
  H        -6.0184063988       11.0264028914       27.6005529772
  H        -6.8973843143        9.4510298145       27.5407545648
  C        -6.0145420299       10.2943091567       25.7185356778
  S        -2.2139517119       17.6570979872       31.3232455394
  N        -2.6109378740       17.3437811672       32.8773712686
  C        -2.6368154267       15.3007840467       34.2611989818
  H        -2.8067021258       13.2620569329       35.0044627577
  C         4.0525569125        8.7424335777       12.7146691417
  N         4.0779807676        7.3695695097       12.7691883497
  O         3.2898555887        5.6641414411       14.0920053397
  H         5.0505263239       10.6575122127       31.6948748621
  H         4.9699947556       10.0289041350       30.1180965523
  C         5.1171026018        8.4380521939       31.5728844697
  H        -5.1069229443       10.7732195712       25.2901995172
  H        -6.0249526205        9.3747656563       25.1634777615
  C        -7.1910273215       11.1089306358       25.1618292076
  C        -3.0103071667       16.1088925687       35.3346733892
  S         4.4984013359        9.6495815556       11.2480813120
  C         4.1026194846        6.6702343050       11.4685534023
  H         5.7790640049        8.5248394071       32.4575309887
  H         4.3357817848        7.9037080502       32.1011445026
  C         5.9315648411        7.4010242933       30.6066121092
  H        -6.7893676032       11.6502019855       24.3495968208
  H        -7.5150856622       11.8457583121       25.8726621064
  C        -8.4352217298       10.2674961169       24.7464649145
  H        -2.5379711609       17.0554356869       35.4096584111
  C        -3.5573268767       15.7655695360       36.5512638085
  H         4.9854437463        7.0456603925       10.9561527131
  H         4.5052642094        5.7034211512       11.6531298087
  C         2.7150364724        6.5252536628       10.8603169979
  H         6.8109925446        7.8989432473       30.3041689325
  H         5.4158489652        7.2622805555       29.6511865886
  C         6.2357080905        6.1178361502       31.4231976430
  H        -8.9817934855       10.7685773302       24.0017795813
  H        -8.0778939410        9.3056042103       24.3850938024
  C        -9.5127131270       10.2392803334       25.8952424388
  S        -4.2383861659       14.2891357775       37.0653227982
  C        -3.5123992080       16.7938583320       37.6214485262
  H         2.0980167797        6.8102480151       11.7175805959
  H         2.4507837732        7.2938050737       10.1020393787
  H         2.6048558842        5.4698885462       10.5605150761
  H         6.5815373200        6.3586691139       32.3845715280
  H         6.9517079176        5.4680400229       31.0533301757
  H         5.3405712221        5.4732996790       31.5300268525
  H        -9.7415024568       11.2630055100       26.2294428857
  H        -9.3523497732        9.5507762796       26.7450309978
  H       -10.3380914628        9.7485103656       25.4179391673
  C        -4.5267036150       15.0496324184       38.6280156687
  N        -4.2394571240       16.3763838584       38.6769140289
  O        -3.1961300800       18.0027939879       37.4350100919
  S        -5.3830642284       14.4276956287       40.0418554139
  C        -4.4900730083       17.3319121504       39.8008445146
  H        -4.7037709926       18.3336424086       39.4644526898
  H        -5.3959668917       16.9962112505       40.2827411149
  C        -3.3113004696       17.2688616305       40.8180554616
  H        -3.6136395646       16.8364208215       41.7267815821
  H        -2.6217657255       16.5028445521       40.4401689679
  H        -2.8495506506       18.2083979013       40.9351711520
