352
i=
  H         2.1951558730        2.3247709097       13.0954902941
  C         3.2778291076        2.4778232386       12.9605120298
  H         3.6295674253        1.4180587074       12.8421154843
  C         3.2880679105        3.2849399498       11.6600068238
  C         3.8744362378        3.1518217221       14.2081079373
  C         4.6616208177        3.3302744055       11.0029663674
  H         2.9061028303        4.2991233732       11.7822171584
  H         2.5085944383        2.8417086023       11.1043935011
  H         4.3565775082        2.4436431112       14.8682639764
  H         3.1796793467        3.7027841098       14.8305758984
  H         4.6585348893        3.8480375656       13.8928532326
  C         5.0502391918        2.0006527282       10.4813274428
  H         4.5702458397        4.0122091805       10.2260965987
  H         5.3787193181        3.7940596052       11.6868523852
  C         5.3729827197        1.9496234936        8.9312408768
  H         4.2419157060        1.2284935496       10.6318472126
  H         5.9217588206        1.6474665503       11.0156738447
  C         6.6339398977        2.7692770227        8.7722948924
  H         4.6942556556        2.4301833163        8.2401302893
  H         5.4119600497        0.9419871270        8.6049441232
  C         7.9878552791        1.9646429807        8.9042319680
  H         6.6048679114        3.2808480504        7.8096958439
  H         6.5535389737        3.6540457787        9.4185436748
  C         9.2041917079        2.9200568682        9.0826083564
  H         8.1685169200        1.3243787202        8.0622784372
  H         7.8770670007        1.3690099368        9.7879326392
  C         8.9987474990        4.2950379880        9.7579098153
  C         9.6655485632        3.6234806686        7.8276266125
  C        10.3811041854        2.2748592901        9.9851886296
  C         9.1956684002        5.3970234559        8.9911797577
  C         8.6005511139        4.6906478054       11.0763693800
  C         9.6477110934        4.9817302107        7.7255267546
  C        10.1005081859        3.0056371948        6.6572762602
  H        10.1473816151        2.0704469750       11.0316341661
  H        10.6029518394        1.2703540225        9.4991635456
  C        11.6475158092        3.0869414598       10.0930128274
  S         9.0059025673        6.8294793369        9.7787752804
  C         8.5490655535        6.0343984952       11.1546530293
  H         8.2284001615        4.0063110477       11.8055281140
  C        10.1064493989        5.5897099573        6.5592126673
  H        10.2005159255        1.9547367691        6.7137237352
  C        10.4598924878        3.5679662112        5.4782281815
  H        11.5216229361        4.1796513238       10.3423177096
  H        12.0981015051        3.0898397952        9.1103470107
  C        12.8066637193        2.4536286813       10.9802988256
  C         7.9738359974        6.7104512913       12.3680746498
  C        10.4340601338        4.9397675476        5.3586201501
  H        10.1144691619        6.6654504225        6.4940551315
  C        10.8558854148        3.1193647528        4.2778166376
  H        13.6295855228        3.1128777628       10.7455613652
  H        12.9770350584        1.4060428324       10.6202549142
  C        12.5390403265        2.4967998803       12.5315428832
  C         7.8219890462        8.1060324359       12.5455838094
  C         7.3978057380        5.8523207121       13.4536127351
  C        10.9091297541        5.5758495910        4.1138426909
  C        11.1162462708        4.1902240764        3.4186168796
  S        11.1402448783        1.5964812313        3.4722674962
  H        12.1973839938        3.5197096819       12.7794098369
  H        11.7257437498        1.7818501106       12.7659879296
  C        13.8258255610        2.1900777931       13.3510269099
  N         8.2574250360        9.0576403972       11.6798315443
  C         7.4704456741        8.6625401637       13.7983787314
  C         7.0087592314        6.4300461705       14.6746801597
  H         7.5120698930        4.7930207266       13.4422721134
  C        12.2649233376        6.3413101360        4.3100946159
  C         9.7332960613        6.4267222920        3.4942685673
  C        11.4471508939        3.7838798915        2.1164634104
  C        11.5258985185        2.3986531872        2.0299983392
  H        14.3665897967        3.1241678698       13.4815242113
  H        14.4878501160        1.5209167022       12.8351481646
  C        13.4768318081        1.4283917705       14.6874470357
  S         8.1307613065       10.5146102317       12.3560999605
  N         7.7764484371       10.0349514002       13.8521816191
  C         7.1391282623        7.9037610027       14.9239035939
  H         6.5954729040        5.8102012380       15.4073430372
  H        12.0009556833        7.1559140686        4.9977833726
  H        12.5760176651        6.8394172958        3.4713114960
  C        13.4278050738        5.5188616713        4.8742459600
  H         9.3111041721        7.0130787149        4.3056828052
  H        10.0374587626        7.1379836943        2.7355672033
  C         8.5169990527        5.6011170947        2.7671901490
  H        11.5920730542        4.5734241600        1.4293050867
  C        11.7837799259        1.7016251256        0.7738782097
  H        13.0456187262        0.5074521406       14.3975506781
  H        14.4645594724        1.3850633009       15.1875100474
  C        12.6364273726        2.3531156361       15.6375447709
  C         6.9818447895        8.4733844523       16.2355646402
  H        13.0420227879        4.8896824738        5.6732972336
  H        13.8219538536        4.8163741216        4.1144178407
  C        14.6609190632        6.3751518114        5.3829830550
  H         8.1987646749        4.9316708346        3.5447779015
  H         8.7785110951        5.1058198559        1.7952638106
  C         7.3112256872        6.4532760120        2.5253858691
  C        11.9325519629        0.2751229158        0.6054180419
  C        11.8686442267        2.5227078611       -0.4459119046
  H        11.5765284408        2.0555620035       15.5139862360
  H        12.8139854459        3.3746499193       15.4340105920
  C        13.1672078808        2.1828320721       17.0470495245
  H         7.1799190034        9.5507382843       16.2916998809
  C         6.6936080813        7.9678988321       17.4957377350
  H        14.2597814275        7.1715994244        5.9742788357
  H        15.1709537502        6.9403400201        4.6358174600
  C        15.6487049859        5.6172630582        6.3067187069
  H         7.1407841190        7.0388418650        3.4913357258
  H         7.6149823807        7.1720233847        1.7695527098
  C         6.0462326668        5.6484542678        2.0918514156
  N        11.8693706224       -0.6438839214        1.6779884998
  C        12.3403665793       -0.2813511649       -0.5828744466
  C        12.1577898810        1.9103262197       -1.6781215578
  H        11.5157382292        3.5095221588       -0.5178884046
  H        14.1565110731        2.5546316902       17.0676087714
  H        13.1614101812        1.0473124344       17.1707454980
  H        12.3756782973        2.5220107238       17.7872220240
  S         6.4035129752        6.3278364250       17.9373187444
  C         6.6800311009        8.8709371458       18.6482458111
  H        15.1636986000        5.1676701948        7.2197401987
  H        15.9220283730        4.8396372065        5.6189109129
  C        16.9590602885        6.4458184590        6.6231255349
  H         5.7017807518        5.0017562783        2.9225298170
  H         6.2821569909        5.0166690366        1.3074623833
  C         4.8184137694        6.5416316092        1.6764172412
  S        12.1656028351       -2.0610106554        1.0488073754
  N        12.5163178593       -1.6183919395       -0.4321790112
  C        12.4868081107        0.4513301915       -1.7837416012
  H        12.1727457981        2.4715992891       -2.6223826323
  C         6.1294805187        6.9450387533       19.6169062085
  N         6.3370954592        8.2410002060       19.8010668403
  O         6.9022986820       10.0404609918       18.5682471213
  H        17.2775465283        6.9062807943        5.7548681981
  H        16.7904412900        7.3255201835        7.2671922776
  C        18.1220311921        5.6456289777        7.2257408715
  H         4.5854089320        6.4305353239        0.6112702899
  H         3.9860650336        6.0203169708        2.1871137694
  C         5.0290260078        8.0257793127        2.0310310304
  C        12.8981061455       -0.2747477092       -2.9331977189
  S         6.0310836298        5.9715392639       21.0246509805
  C         6.2706843826        8.8988814991       21.1056096019
  H        18.0038389173        5.6335956264        8.3026518033
  H        18.1397533302        4.5751666481        6.9964163193
  C        19.4545420725        6.2799392154        6.8726625857
  H         5.9242461361        8.3026561158        1.5248244670
  H         5.1465024627        8.2930111938        3.1110125718
  C         3.8693477478        8.8772062471        1.4296723784
  H        12.6400072266       -1.2493907738       -2.8786624696
  C        13.3053588213        0.0044544954       -4.2009486942
  H         5.5392875423        8.5846740084       21.8441337295
  H         5.8728484710        9.9142383618       20.9191501116
  C         7.6775555392        9.0639490551       21.7181397789
  H        20.1515921187        5.9919874855        7.7013690349
  H        19.3599443344        7.3020675699        6.9113623192
  C        19.9605923468        5.6686012896        5.5307253973
  H         3.7576512993        8.5540778725        0.4052872997
  H         2.9807235631        8.5887119981        1.8376854431
  C         4.2567650857       10.3729301828        1.4473807475
  S        13.7739868931        1.5776359754       -4.6047095046
  C        13.4123762556       -1.0662469879       -5.1792926584
  H         7.7435173684        9.5525339626       22.6951419872
  H         8.3457411952        9.5689727755       20.9871646684
  H         7.9921915976        8.0681518551       21.9288155868
  H        20.1925695144        4.6105791001        5.5793146782
  H        19.1769498262        5.8069818221        4.7743869117
  H        20.8765212131        6.1334132155        5.2728227124
  H         4.8569605684       10.5519139858        0.5792661873
  H         3.2815987762       10.8998648994        1.4400293392
  H         4.9508938011       10.6141747337        2.2479744231
  C        14.3209622239        0.8358349407       -6.1190777892
  N        14.1371015284       -0.5050561938       -6.1480789064
  O        13.1365386451       -2.2188295470       -4.9743058156
  S        15.1758266720        1.6327029524       -7.4642862585
  C        14.4810993677       -1.2127982028       -7.3683672273
  H        14.6567140865       -2.2713179286       -6.9902224248
  H        15.4990483404       -0.9711853643       -7.7092328458
  C        13.3535250042       -1.2823050979       -8.3320771558
  H        12.3961712853       -1.2521734756       -7.9284598336
  H        13.3633071683       -2.2648281081       -8.9098047250
  H        13.3039673253       -0.6071817961       -9.1504002875
  H        -2.8730480993       15.0882404180       16.6798741706
  C        -2.6148952591       14.0265210533       16.5613250293
  H        -3.5030180891       13.4682565193       16.8137251926
  C        -1.4269798308       13.8409648533       17.4415233468
  C        -2.3552303354       13.7726324643       15.0454647850
  C        -1.6255019950       14.1667758135       18.9296948013
  H        -1.0147527043       12.8424193219       17.3910184984
  H        -0.6840738324       14.6099888040       17.1584276677
  H        -1.3747903426       14.1012345627       14.7025610769
  H        -2.5381145228       12.7492099037       14.7228920010
  H        -3.0133699982       14.4188203732       14.3911415624
  C        -1.8882275539       12.9656152890       19.7997938960
  H        -2.4869335320       14.8308723958       19.1287367372
  H        -0.7077737843       14.7398659940       19.2181706694
  C        -2.1653521332       13.3501349734       21.2667975901
  H        -2.6429370262       12.3569760943       19.3617674626
  H        -1.0272834851       12.3243904593       19.6854976198
  C        -1.1210131354       12.7296903120       22.2468010634
  H        -3.1435781430       13.0030809772       21.5462060756
  H        -2.1372642233       14.4177912613       21.4944310478
  C         0.1233204936       13.6518352442       22.4753037346
  H        -1.4380007824       12.7533653528       23.2744623058
  H        -0.8509397351       11.6802311244       21.9338560572
  C         1.2213535551       12.9194198473       23.2322863740
  H         0.3860597374       13.9058321403       21.4344263048
  H        -0.2054067162       14.5697137451       23.0109929389
  C         1.6059316473       11.6049932444       22.6109758791
  C         0.8831163458       12.2504556476       24.5389827355
  C         2.4484108294       13.8885150692       23.3811463065
  C         1.3711889385       10.4885872182       23.4185255890
  C         1.9973450877       11.2059946673       21.3403519925
  C         0.9190437811       10.9072323012       24.6576528140
  C         0.4604092698       12.9320401075       25.6593008466
  H         2.5812970532       14.3311174482       22.3703807804
  H         2.2837501225       14.6206797311       24.1600596658
  C         3.7846540097       13.2518983443       23.6194137795
  S         1.7522760035        8.9355912899       22.6495463751
  C         2.0971189274        9.8035837757       21.1524663923
  H         2.2297604414       11.9973805385       20.6492901526
  C         0.6892288310       10.3587371653       25.9031374796
  H         0.3495061540       13.9996470583       25.7139495851
  C         0.1190499381       12.3452987004       26.8615015278
  H         4.0013326349       12.6826438678       22.6410798515
  H         3.7873887766       12.4669676357       24.3936819778
  C         4.9942002258       14.1479386089       23.8024253313
  C         2.6558561056        9.1787465988       19.9234974683
  C         0.2899047262       11.0266465631       27.0380626872
  H         0.8224474040        9.2829331547       25.8034931853
  C        -0.3127190907       12.8158534795       28.1055280241
  H         5.8634725377       13.5580913561       24.1754658779
  H         4.9834361356       14.9648112958       24.6037568226
  C         5.5172502261       14.8611319326       22.4897379001
  C         2.7507840509        7.7912745000       19.6272165993
  C         2.9679647757       10.0636608522       18.7962344961
  C        -0.1531773585       10.4067774290       28.3402790814
  C        -0.3211802981       11.7627395699       29.0121188195
  S        -0.6302333355       14.3871433404       28.8616511435
  H         6.1001790145       15.7595533101       22.7620973524
  H         4.6905607876       15.1347744592       21.8383269420
  C         6.2506971942       13.9270429706       21.5931629632
  N         2.4683960262        6.8543074275       20.5607993947
  C         3.0505795484        7.3297341683       18.3635031431
  C         3.3261280210        9.6106672740       17.5299671712
  H         2.9748131305       11.1670943802       18.9308378498
  C         1.0542922263        9.6275221716       28.8527251703
  C        -1.5127694636        9.7218405788       28.2612023508
  C        -0.6811023677       12.1725819368       30.2949776521
  C        -0.8334554142       13.5740738061       30.4214862415
  H         7.3093958330       14.3522969818       21.3830990068
  H         6.4225862869       12.9524382634       22.0814743745
  C         5.6733712751       13.7949777810       20.1748524329
  S         2.5748329306        5.4101917281       19.8087746130
  N         2.9024074080        5.9680712717       18.2636777269
  C         3.3541578901        8.1766502125       17.2387482558
  H         3.4305244906       10.3446282842       16.7453886448
  H         1.4782069140        8.9006547061       28.1180735576
  H         0.7162157846        8.9389789586       29.6000452906
  C         2.2022201385       10.4657929955       29.3098123092
  H        -1.3542231586        8.8339174347       27.6547596217
  H        -1.7976370909        9.3428119447       29.2684313655
  C        -2.5823108845       10.6306834466       27.6753293127
  H        -0.9166048575       11.4643172737       31.0901338779
  C        -1.2559619855       14.3542072325       31.6865816500
  H         5.1724631200       14.7493523239       19.8837348609
  H         4.8146444296       13.1552558003       20.2702628782
  C         6.6853636812       13.3364363806       19.1614643535
  C         3.5818712034        7.6501902676       15.9351390539
  H         2.5572654759       11.0567815674       28.4504847303
  H         1.9061948033       11.1259512064       30.1321806805
  C         3.2779138061        9.6476481465       29.9878820997
  H        -2.4719950538       11.0250424819       26.6586995592
  H        -2.9354319195       11.5594777743       28.1881092547
  C        -3.8499136953        9.7136105065       27.5189455275
  C        -1.2863022866       15.7613138047       31.8503635592
  C        -1.7364246615       13.6258370379       32.9148465792
  H         7.3475739145       14.1611036649       18.8993804661
  H         7.2843524779       12.4077947031       19.4665131309
  C         6.0970462185       12.9785433657       17.8592943848
  H         3.3717703387        6.5958249602       15.8866474553
  C         3.8844456631        8.1925496003       14.7395084005
  H         3.5601520606        8.7661065162       29.3905894626
  H         2.9722708753        9.2081679905       30.9355679399
  C         4.5109551894       10.5496253029       30.1275235391
  H        -3.5607326070        9.0328939042       26.7240046893
  H        -3.9283593925        9.0734606531       28.4248464913
  C        -5.1746672942       10.5469493717       27.2169379083
  N        -1.0348409764       16.6973906520       30.8143440035
  C        -1.6381235112       16.4090974499       33.0331499437
  C        -2.0963484936       14.2219982481       34.1295952687
  H        -1.8245080432       12.5405799498       32.8582189967
  H         6.7030693695       12.3056917304       17.2566629472
  H         5.2253762079       12.3126174943       18.0905780941
  H         5.7140316444       13.8146370035       17.2667710091
  S         4.3795427509        9.8035717263       14.3796891766
  C         3.9447552387        7.2787768483       13.5909148763
  H         4.5236752202       11.3725359101       29.4312812314
  H         4.3985283989       11.0016857816       31.0661543504
  C         5.8966464846        9.8165720637       30.0938791821
  H        -4.9699303336       11.4028450749       26.5447739373
  H        -5.5360282263       10.9980871720       28.1621054790
  C        -6.1520181746        9.7320475971       26.3660145854
  S        -1.3174201148       18.1660789032       31.4150871123
  N        -1.6981009455       17.8026191211       32.9571582375
  C        -2.0370510831       15.7269104023       34.1926579381
  H        -2.3499811710       13.6512459362       34.9998723301
  C         4.3580370869        9.3073864592       12.7265848940
  N         4.3544344130        7.9609933502       12.5685205410
  O         3.8391013502        6.0524890940       13.6075913647
  H         6.6964019528       10.5665728029       30.3218945902
  H         6.0748497416        9.4611906765       29.0750065995
  C         6.0255936388        8.6361683154       31.1531685009
  H        -5.6850959541        9.5147779106       25.3691364732
  H        -6.2800246997        8.7619051668       26.9063861382
  C        -7.4503360802       10.4761430905       26.1259555890
  C        -2.3501848436       16.5485216282       35.3367675392
  S         4.8014934184       10.3297304821       11.3893811518
  C         4.5623882152        7.3305437209       11.2866919341
  H         6.5434470502        9.0743483160       31.9865883105
  H         5.0780302292        8.4024294051       31.7101363255
  C         6.6486906919        7.3987134918       30.5014887950
  H        -7.2223882109       11.4003948586       25.6201023902
  H        -8.0151976659       10.7675355412       26.9662223453
  C        -8.3732286291        9.7331269853       25.1334540801
  H        -2.0790021740       17.5734991915       35.2331786585
  C        -2.9618392455       16.2776465568       36.5315136386
  H         5.2532440398        7.9601333293       10.7201787311
  H         4.9912506749        6.3452814745       11.5097271538
  C         3.1643282974        7.2359736303       10.6631986232
  H         7.6397888517        7.6496139635       30.1189698235
  H         6.1258902170        7.0824894943       29.5705585908
  C         6.7183017032        6.1111125719       31.4306490738
  H        -8.3737533889       10.1524145564       24.1594557789
  H        -8.1342905025        8.7153141627       25.0509784647
  C        -9.7394264841        9.8103431681       25.7082485077
  S        -3.4784390387       14.7848795825       37.1665028731
  C        -3.0160885173       17.4498937820       37.4891537101
  H         2.6421701882        8.2284144355       10.5717896038
  H         3.2030001116        6.9560058539        9.6281165256
  H         2.5777665563        6.5539890074       11.2673694416
  H         7.4698247613        5.4654923066       31.0540171098
  H         5.6846245251        5.6159497063       31.4222036956
  H         7.0951660263        6.3975609280       32.4138951419
  H        -9.8160902151        9.1714276779       26.6241998453
  H       -10.4534233594        9.4828205410       24.9977206683
  H       -10.0791504335       10.7491404363       25.9858593472
  C        -3.8572977217       15.7021891441       38.6216911129
  N        -3.6973844502       17.0648364495       38.5497932594
  O        -2.8351477213       18.6574945668       37.1041861577
  S        -4.5181621670       14.9928663091       40.0938595909
  C        -3.8720207776       17.9693804860       39.6830460818
  H        -4.1357142026       19.0194105698       39.3552787327
  H        -4.7382831997       17.7071169283       40.2872563869
  C        -2.6023286996       17.9768961099       40.5572097721
  H        -2.7881132708       18.6319157110       41.3895785684
  H        -2.3913096596       17.0335162488       40.9794982547
  H        -1.6824089504       18.1638177370       40.0630389232
