352
i=
  H         4.3379787923        1.8424232857       12.3612304453
  C         3.8265609747        2.7752703785       12.5953583830
  H         4.4988159569        3.6218962556       12.5466767898
  C         2.8343926117        2.8806160968       11.4296573079
  C         3.0948453827        2.7252285567       13.9661360357
  C         3.4523954515        3.0536493001       10.0726561408
  H         2.2051996571        3.8014949584       11.4742299353
  H         2.1703715425        2.0637311640       11.4888882259
  H         2.6436158703        1.7389252899       14.1698665780
  H         2.3176801404        3.4884902419       14.0346645182
  H         3.7366945105        2.8920669127       14.7587302402
  C         4.1554543618        1.7362413179        9.5489296381
  H         2.8551412200        3.4780755604        9.3351644633
  H         4.1745694925        3.8313516312       10.1941061713
  C         5.0579784464        2.0263233181        8.2870242775
  H         3.4059200382        0.9905464670        9.3499137391
  H         4.7149429715        1.3021150073       10.3581178790
  C         6.3304259028        2.7489061542        8.6479226984
  H         4.4781461802        2.6661847254        7.5927911540
  H         5.2612539709        1.1237626106        7.7649743296
  C         7.4688707642        1.9803219425        9.2282426733
  H         6.6111809638        3.3218983176        7.7515592581
  H         6.0977513744        3.5613255678        9.3182635187
  C         8.8682066785        2.7715123899        9.2563359420
  H         7.6554305402        1.1151593809        8.4967170102
  H         7.0677915464        1.5381698374       10.2005626717
  C         8.4752576394        4.1082062224        9.9458631815
  C         9.2528957046        3.5038678204        8.0117998304
  C        10.0357480424        1.9738364690        9.7888575947
  C         8.8540699833        5.2099844312        9.2028236252
  C         7.9561682955        4.5761496753       11.1870975407
  C         9.2771662516        4.8781267070        7.9650615815
  C         9.7660468380        2.8605386852        6.8497665338
  H         9.8021797540        1.4403778079       10.6968766007
  H        10.3198903332        1.1251825122        9.1070717233
  C        11.2576452650        2.8958888014        9.9609293707
  S         8.4778525371        6.7425151624        9.8833287120
  C         7.7486391632        5.9526969465       11.2691619052
  H         7.6754199146        3.8958462327       12.0232602557
  C         9.7653914266        5.5034112413        6.7837993812
  H         9.6582939841        1.7646696301        6.8412808417
  C        10.0248364912        3.4912805869        5.6765034657
  H        11.0910401858        3.9322465194       10.0071540239
  H        11.9009271815        2.8345006100        9.0681015660
  C        12.2306202383        2.5985318692       11.1128293307
  C         7.2548800875        6.6902646134       12.4855686381
  C        10.0057362898        4.8803628904        5.5445249374
  H         9.8451536208        6.6177653337        6.7659828211
  C        10.4896157441        3.0482005586        4.4341915994
  H        13.1847215348        2.9708887115       10.9405981867
  H        12.4661662575        1.5563571431       11.0594826201
  C        11.6514910404        2.9608329468       12.4808182355
  C         7.4198473795        8.1069834698       12.7683055447
  C         6.7824511200        5.8706174588       13.6557889004
  C        10.4941341941        5.5497426002        4.2091054350
  C        10.7444148496        4.1254774194        3.6044763481
  S        10.7549655790        1.6486976111        3.6085166725
  H        12.4932825443        3.3606209728       13.0381516162
  H        10.9800966493        3.8074749343       12.3134916190
  C        11.1394162027        1.8316646805       13.3394676597
  N         7.8640204352        9.1567100469       11.9186428914
  C         7.0810891025        8.5883525511       14.0124969800
  C         6.5298391982        6.4169266740       14.9497621470
  H         6.6186180891        4.8288928674       13.5394306990
  C        11.7993839029        6.3284479714        4.2751531616
  C         9.3239933359        6.3456897677        3.5424287001
  C        11.1163449793        3.8203808947        2.3036720924
  C        11.2296706125        2.4538424559        2.1873083095
  H        11.7142896299        0.9445727006       13.1077632583
  H        10.0432333637        1.7156959557       13.0491637701
  C        11.1488711437        2.0702516075       14.8379237603
  S         7.6579990089       10.5921709909       12.6450807770
  N         7.1491618693        9.9353616193       14.0174333069
  C         6.5935085382        7.8398147795       15.1650281566
  H         6.1196311944        5.7811568570       15.7879331476
  H        11.5972035688        7.1452566292        4.9415103445
  H        12.1312410626        6.6199986129        3.2586221067
  C        13.0416655438        5.6358413425        4.7749761990
  H         8.9230553281        6.8774610525        4.3367989373
  H         9.7437838924        7.1030619250        2.7530476119
  C         8.2894066210        5.4989366249        2.8845917986
  H        11.3054958524        4.5642297163        1.5974943189
  C        11.7502656702        1.7365922082        1.0637316863
  H        11.1047908470        3.1140783494       15.0107459739
  H        10.1776087107        1.7892769572       15.2832824762
  C        12.3943507219        1.5091430962       15.5891145096
  C         6.4009873135        8.5126619968       16.4072234752
  H        12.7774779510        5.0293238414        5.7014305197
  H        13.3405855594        4.8471180074        4.0750784848
  C        14.0790513788        6.7175329386        5.0139664371
  H         8.0137203952        4.6129100104        3.4229443306
  H         8.6144740009        5.1780527748        1.8577372758
  C         7.0523123868        6.3512606695        2.6848484407
  C        11.6736869963        0.2962329403        0.9523026543
  C        12.0074510566        2.4890336439       -0.1201087950
  H        13.2097409606        1.4947192210       14.8029475680
  H        12.2592258250        0.4661499716       15.8722335114
  C        12.6890690316        2.2226629956       16.9391320520
  H         6.4143788965        9.5714859942       16.3757808653
  C         6.2791905158        8.0283184705       17.6553741783
  H        13.5922727087        7.2444532714        5.8390799307
  H        14.0552976770        7.2563387190        4.0595144117
  C        15.4837110555        6.1360850493        5.2093418150
  H         6.5216851623        6.3699592107        3.6415030571
  H         7.2798459022        7.3003631771        2.3160342520
  C         5.9638965133        5.8964380526        1.7591876878
  N        11.5071861757       -0.6870243866        1.9871364114
  C        12.1597541261       -0.3257908548       -0.2056762376
  C        12.4539148340        1.9197945976       -1.3045463179
  H        12.1158248427        3.5800493862       -0.0538526406
  H        13.3680222788        1.6224523967       17.6278646423
  H        11.8069218107        2.2100800500       17.5308031721
  H        13.0512038893        3.2097577078       16.8212979299
  S         5.9471705047        6.3688788864       18.0991768018
  C         6.1123382295        9.0026367850       18.7712248047
  H        15.6335541863        5.1548042274        4.7572378477
  H        16.1330440324        6.7133830524        4.6234410395
  C        15.7507075611        6.0105995976        6.7660273210
  H         5.2743292082        5.3828587599        2.4175530412
  H         6.4367329173        5.2978899010        0.8885172614
  C         5.1523840531        7.0731556416        1.2174515993
  S        11.7235197131       -2.2023201799        1.3566691980
  N        12.1542587739       -1.7353919435       -0.1382880557
  C        12.4968811488        0.4068018117       -1.4166907298
  H        12.5659788612        2.5298195683       -2.1829858514
  C         5.7562767923        7.0290208268       19.7041469814
  N         5.8568694431        8.3626192147       19.8612278207
  O         6.5164092289       10.1883844564       18.7268491373
  H        15.7776341861        7.0451087779        7.0973610657
  H        15.1621063208        5.1096763351        7.2001607526
  C        17.1422445612        5.5206543135        7.0883160291
  H         5.7200578424        7.6774056947        0.5630044707
  H         4.5527769589        6.4185509498        0.6291574771
  C         4.4257364878        7.8720089909        2.3138877250
  C        12.6263451738       -0.2221383496       -2.7042270552
  S         5.3131341367        6.2216326107       21.1827344533
  C         5.7563342828        9.1902456696       21.1642771144
  H        17.3166627266        5.8592966326        8.0718711048
  H        17.1030839698        4.4485774566        7.0350816436
  C        18.2329527481        5.7640901903        6.0785957001
  H         5.1379551878        8.5202579770        2.9470832834
  H         3.8461556281        7.1917001219        2.8264214847
  C         3.3887145828        8.8520117844        1.6844683519
  H        12.2108718640       -1.1879133080       -2.6426871761
  C        13.0686914138        0.1044028294       -3.9650512834
  H         4.9674250946        8.9010501017       21.8184629723
  H         5.3277820405       10.1865040446       20.8183108174
  C         7.1082304941        9.2148572746       21.8643509990
  H        18.2060971942        6.7957251493        5.7018083710
  H        18.1415841409        5.1216631757        5.2305103656
  C        19.6579599415        5.5358259141        6.6179821026
  H         2.7671150983        8.4747022663        0.8242283433
  H         2.6695028184        9.1700372303        2.4765160069
  C         4.1532263171       10.0778669709        1.1357238058
  S        13.5696592953        1.5618506857       -4.5138887009
  C        13.2413826442       -0.9817608642       -4.8961286404
  H         7.0610271395       10.0039171487       22.5943146979
  H         7.9577137922        9.4901580453       21.1761985339
  H         7.3920729051        8.3218793312       22.4938704818
  H        20.3088330140        6.3646222045        6.3396066358
  H        19.7379064550        5.6633861802        7.7090489449
  H        20.0716888248        4.5713662442        6.3447885066
  H         3.5570619919       10.6983922547        0.4635634392
  H         4.6525807670       10.7008876344        1.9384972227
  H         4.9320248526        9.6980570111        0.4645897514
  C        13.9358296316        0.7561542324       -6.0990535175
  N        13.7424016558       -0.5840339312       -6.0623851668
  O        13.0196283875       -2.1874684390       -4.5745266532
  S        14.6716334103        1.3401708493       -7.5264895375
  C        14.1141304584       -1.4726926310       -7.1819729797
  H        14.3124755257       -2.4959953372       -6.8137061770
  H        15.0695804711       -1.0583158619       -7.5169965187
  C        12.8936071927       -1.4816498793       -8.1748059583
  H        12.7272779963       -2.5390337146       -8.5605571485
  H        12.8883514678       -0.7469964661       -9.0524205748
  H        11.9786932459       -1.2661854834       -7.6444310348
  H        -2.3981667430       15.4093011969       15.2620990364
  C        -2.9446880742       14.5555567302       15.7354501437
  H        -3.8392317679       15.0446162545       16.0972991517
  C        -2.2368904562       13.8165938975       16.8709112243
  C        -3.4117148402       13.6104969288       14.6659368633
  C        -2.5813636819       14.3593221944       18.2393490500
  H        -2.5840859408       12.8481276606       16.7356083575
  H        -1.1077990737       13.7662042292       16.7371108195
  H        -3.8514089037       14.0134596190       13.7854006908
  H        -2.4477315967       13.1959509755       14.3567028180
  H        -4.0492105343       12.9163877567       15.1994475088
  C        -1.6026372548       13.9697517926       19.4011421120
  H        -3.5043047894       13.8683403625       18.5071337406
  H        -2.6567715082       15.4925078233       18.1127223738
  C        -2.1758647271       14.0708802597       20.8339842775
  H        -1.0149743653       13.0822819209       19.1651245474
  H        -0.9017524466       14.8439026465       19.3996729589
  C        -1.2162311192       13.4219298737       21.8251596297
  H        -3.1995247326       13.7127679904       20.8963788991
  H        -2.2977686803       15.0486177611       21.0301335790
  C         0.0551151693       14.2342603856       22.0567116178
  H        -1.8066067822       13.5294469198       22.7186640524
  H        -1.0342587216       12.4007337249       21.5211269568
  C         1.1453573610       13.4648519147       22.7933859117
  H         0.5708894888       14.5248106226       21.0708730911
  H        -0.1689626267       15.0011617947       22.7811327016
  C         1.5016370533       12.1099180611       22.2035008123
  C         0.5820643609       12.8113289470       24.0394392503
  C         2.3373468822       14.3269593991       23.0762507475
  C         1.1293440214       11.0110928950       22.9749877838
  C         2.0227096166       11.6359993053       20.9788407299
  C         0.5040216286       11.4371284408       24.1729037074
  C         0.1170046350       13.4568464860       25.2009280284
  H         2.5207954940       14.8283785882       22.1746163252
  H         2.0808037805       15.0763747311       23.7814207104
  C         3.6972556905       13.6059921355       23.5907998525
  S         1.5171134459        9.5100468017       22.3113272924
  C         2.1306535030       10.2861625551       20.8653960525
  H         2.2164985438       12.2833775094       20.1501049294
  C        -0.0665271687       10.8393577520       25.2954552354
  H         0.3168730095       14.5258615075       25.2029613910
  C        -0.3329856802       12.8307697389       26.3093631321
  H         4.0046337333       12.8425672159       22.8770325780
  H         3.5586210619       13.1082719002       24.5811169091
  C         4.9008431450       14.5944909466       23.8863250092
  C         2.6339610600        9.6168444449       19.5903807607
  C        -0.3910328956       11.5269153127       26.4899436267
  H        -0.2616095297        9.7301504832       25.3493634238
  C        -0.7196950861       13.2466493973       27.5790455200
  H         5.5813385096       14.0129566720       24.5917790193
  H         4.4781570094       15.4515732274       24.5223450902
  C         5.6281399859       15.2384684184       22.6731795928
  C         2.5061128770        8.2597531536       19.3333619188
  C         3.0531204773       10.4421135984       18.4269121699
  C        -0.8860125388       10.8217313872       27.7020513392
  C        -1.0254432542       12.1848241189       28.3721701598
  S        -0.9562874766       14.7693510579       28.3673639142
  H         6.2255369876       16.1420642955       22.9959211585
  H         4.8877368483       15.5565736396       21.9244758443
  C         6.6011378561       14.2997074759       21.9848301961
  N         2.0712818871        7.2649293839       20.2960349437
  C         2.6550931302        7.6416929386       18.1870267277
  C         3.1803335916        9.8266176339       17.1556548258
  H         3.3462214697       11.4778799953       18.4189055574
  C         0.3201503749       10.0274281690       28.3073964961
  C        -2.2241828798        9.9563138503       27.4004443139
  C        -1.5279631997       12.5893580028       29.6044375144
  C        -1.5043783257       13.9794092112       29.7322769373
  H         7.5419550202       14.9563335595       22.0075294106
  H         6.9689664269       13.3830384507       22.4675444058
  C         6.4238725083       13.9803220906       20.5139402790
  S         1.9163127129        5.7801312747       19.7010746243
  N         2.5623658955        6.2574994879       18.2730406735
  C         3.0281840945        8.3784262001       16.9768760487
  H         3.6395859153       10.3831798428       16.4009673043
  H         0.8614358015        9.5241377057       27.5208156800
  H        -0.0283675280        9.2753402534       29.0263326397
  C         1.3748332905       10.8601510072       28.9926085865
  H        -2.1219595518        9.2565322923       26.6196802389
  H        -2.4094344435        9.3477908925       28.2968016638
  C        -3.4165978292       10.8196347030       27.1385361967
  H        -1.9343737042       11.9089968701       30.2339854598
  C        -1.8132600926       14.7608043913       31.0182503673
  H         5.9187733838       14.8010769256       20.0037791722
  H         5.7100967502       13.1493764539       20.5221680212
  C         7.5290773147       13.6747258392       19.6134870340
  C         3.2931979137        7.6401635275       15.8048103703
  H         1.8384698845       11.4686243210       28.2444194491
  H         1.0754466301       11.4704960721       29.7842286203
  C         2.4146882441        9.9204483233       29.6308232971
  H        -3.2861504347       11.5508570389       26.2786724070
  H        -3.6878334452       11.3633127458       28.1183140203
  C        -4.5893407844        9.9378240434       26.8787565022
  C        -1.8521187481       16.1736854236       31.3187425790
  C        -2.0678612169       13.9287700152       32.2057032800
  H         8.3007091661       14.4375272348       19.6898431001
  H         8.0290064474       12.7662412283       19.7506109548
  C         7.1002201384       13.7267843342       18.1435122327
  H         3.0456583051        6.5306269545       15.8415469450
  C         3.5602382834        8.0648786606       14.5376239753
  H         2.5507534894        9.0979495744       28.9962766358
  H         2.0013434280        9.4409024809       30.5669649816
  C         3.7914214294       10.5429490248       29.9204398744
  H        -4.3788037709        9.1397442723       26.1761849241
  H        -5.0254874910        9.5094179421       27.7914056541
  C        -5.7032142556       10.7452405764       26.2598509329
  N        -1.5670871115       17.2199191989       30.3683824235
  C        -2.0427964426       16.7239778686       32.5972505687
  C        -2.2738295533       14.4536023078       33.4592187638
  H        -1.9115309656       12.8661277731       32.2043029160
  H         7.6853795651       13.1067626201       17.5446208548
  H         6.0448332404       13.5159016328       18.0034594563
  H         7.3414946087       14.7046104932       17.7943609930
  S         3.8661956664        9.6334083818       13.9481513062
  C         3.4902739036        7.0292420302       13.5156247251
  H         3.9954354920       11.1117357281       29.0061468337
  H         3.7842691672       11.2357265292       30.8007489279
  C         4.8491624109        9.4071939858       29.9819391037
  H        -5.3850931945       11.0593879652       25.2300041935
  H        -5.7007956576       11.6825101173       26.7757039961
  C        -6.9829913348        9.9990919445       26.1371326662
  S        -1.6690407862       18.6450895737       31.0767212365
  N        -1.9712583554       18.1285087754       32.6015825678
  C        -2.2400903208       15.8964477597       33.7372178887
  H        -2.3434611456       13.7259742330       34.1797362670
  C         3.9676098402        8.8873661850       12.3670767566
  N         3.8170734752        7.5324935591       12.3110540287
  O         3.1519199349        5.8717338290       13.7300189518
  H         5.8180366444        9.8364643046       30.2473310023
  H         5.0768196652        9.0183393977       28.9949259401
  C         4.4678210689        8.1549688239       30.8698650371
  H        -6.8054602183        9.1846369705       25.4014396114
  H        -7.1809485676        9.4323701017       27.0792927900
  C        -8.1367612097       10.8753362814       25.6599476815
  C        -2.4328696610       16.5638070874       34.9816319797
  S         4.4428864351        9.7332784396       10.9202082952
  C         3.8062556964        6.7724046692       11.0932303679
  H         3.8220198548        8.3708255457       31.6889206019
  H         4.0113718697        7.4332036299       30.2447019975
  C         5.6025697095        7.3907661297       31.4968738440
  H        -7.8754639246       11.4012418156       24.7178941359
  H        -8.4507441490       11.6462602835       26.3489767798
  C        -9.3031217563        9.9510504753       25.3129737051
  H        -2.0686432079       17.6298571620       35.0804724811
  C        -2.9564678201       16.1804653215       36.2529017298
  H         4.6355117742        6.9759633923       10.4170090918
  H         4.0567446731        5.7550375982       11.3473205016
  C         2.4309187239        6.8593915371       10.4493530242
  H         5.3968287202        6.6594374963       32.2611329477
  H         6.3005126732        8.0266802010       32.0093286247
  C         6.1238566262        6.5620544703       30.3142750589
  H        -9.9361736072       10.4880606925       24.5763064893
  H        -8.9647403096        9.0750348523       24.6054890862
  C       -10.0251302655        9.5312346303       26.5398289376
  S        -3.5612093460       14.5715132909       36.6538252490
  C        -2.9483051452       17.0838620195       37.3418500441
  H         2.2444520108        7.7858440558        9.9619377408
  H         2.1982925779        5.9607071448        9.9125900269
  H         1.6813299894        7.0246700900       11.2807688151
  H         6.8209743959        5.7889526260       30.6857525772
  H         6.6675275711        7.2468514672       29.6295822094
  H         5.4062799100        6.0450274189       29.6355685445
  H        -9.5940843026        8.5827027467       26.7341753399
  H       -11.0704718347        9.4676973608       26.4024265247
  H        -9.9854461067       10.1395319239       27.4490710492
  C        -3.6836503773       15.1350081466       38.3420884504
  N        -3.4612407828       16.4834282583       38.4097307669
  O        -2.6467620959       18.2994570273       37.3509699678
  S        -4.1714388309       14.2008613834       39.7467200809
  C        -3.6762800603       17.2415043976       39.6477612022
  H        -4.0698982728       18.3182418015       39.5072155366
  H        -4.5528225216       16.7593814461       40.2159778739
  C        -2.5405740084       17.3040486098       40.6161029459
  H        -2.7489728399       18.0588659582       41.3190704336
  H        -2.2941720349       16.4060449818       41.2498696663
  H        -1.6490782114       17.5570417574       39.9617308461
