352
i=
  H         3.8787600570        3.5535242233       11.9375592069
  C         3.1603899324        2.8218781385       12.1909217215
  H         2.2593005442        3.3507575501       12.6460757152
  C         2.8128655338        1.9524889818       10.9512676147
  C         3.9466586617        2.0168745842       13.1845941123
  C         3.5961022276        2.3178134740        9.6826584926
  H         1.6814696976        2.0695627305       10.8398113703
  H         2.8131952913        0.8688207608       11.1125662370
  H         3.4569744482        1.0909846786       13.2050696228
  H         3.8796221651        2.5099308626       14.2159773890
  H         4.9982613721        1.8525780843       12.9314110716
  C         4.5250265862        1.1616865075        9.3557962561
  H         2.8822129202        2.4805625342        8.8824354034
  H         4.1650389393        3.2157948863        9.7077847076
  C         5.5120727698        1.6882187120        8.2812300317
  H         3.9626825437        0.2703959443        9.0799595513
  H         5.1160647046        1.0182646061       10.2444522273
  C         6.6324078337        2.6760374261        8.7516417333
  H         5.0523001093        2.3212754023        7.4329627289
  H         5.9615179791        0.8614645051        7.7446740312
  C         7.8957903340        1.8710552088        9.0336892003
  H         6.8004995909        3.2481211345        7.8729659735
  H         6.3717106916        3.2772597732        9.6505155900
  C         9.1618926290        2.7836924847        9.1105068220
  H         8.0283599141        1.0705191661        8.3890837264
  H         7.8894491129        1.3118038680        9.9390436718
  C         8.7501559669        4.0555307535        9.8480116122
  C         9.5607430132        3.4735990313        7.8847662213
  C        10.3756013721        1.9937870637        9.6621247199
  C         8.8005311482        5.1724632472        9.0149408868
  C         8.4021838453        4.4719588348       11.1393788114
  C         9.3563978064        4.8252337983        7.7687211778
  C         9.9248507907        2.8457671072        6.7302526415
  H        10.0365572629        1.5738118622       10.6369023124
  H        10.5504463132        1.1030567817        9.0530635048
  C        11.6131480523        2.8355185167        9.8427380245
  S         8.3631719726        6.6452453562        9.8182352918
  C         8.0561305019        5.7822876281       11.2513956150
  H         8.3725680507        3.7443149493       11.9124521581
  C         9.7245592350        5.3631034611        6.5886569961
  H         9.7615452354        1.7733311126        6.7093552858
  C        10.2920409198        3.4737843054        5.5846504801
  H        11.1377656030        3.7815234553       10.0060069139
  H        12.1719286178        2.9155741237        8.9288830312
  C        12.5488864728        2.4846230000       11.0267028551
  C         7.4675299849        6.4934852618       12.4557680924
  C        10.1983358921        4.8058558487        5.4340435625
  H         9.5864319271        6.4546867995        6.4584125619
  C        10.7670480828        3.0628174025        4.3253528727
  H        13.3115551376        3.2412931947       11.0440583993
  H        12.9407282554        1.4548091968       10.9764541778
  C        11.8478416270        2.6112960401       12.3314997096
  C         7.5233812931        7.8832071330       12.7106809372
  C         7.0829734690        5.6061551528       13.5729201530
  C        10.6645669767        5.5078234871        4.1577735947
  C        10.9951937846        4.1628540049        3.5095685969
  S        11.0452125743        1.5478994674        3.5611428932
  H        11.2648464015        3.5024260116       12.1899810829
  H        11.0910508750        1.7818727851       12.3711479949
  C        12.6942957741        2.5864040117       13.6126046358
  N         7.8970278911        8.8668666689       11.7809490741
  C         7.2466592245        8.4097393093       13.9384404668
  C         6.6947676431        6.1622785839       14.7828629493
  H         6.8966026554        4.5293940286       13.4123252374
  C        11.9927209840        6.3119325093        4.4555202806
  C         9.5945890330        6.3947957178        3.4607132480
  C        11.4873995755        3.7363281043        2.3061567133
  C        11.5354877934        2.3615241017        2.1399080576
  H        13.1938622703        3.6001522655       13.6650359413
  H        13.4463162058        1.8603536661       13.4926297204
  C        11.9213769024        2.3677255370       14.9325398661
  S         7.9481141909       10.3392063811       12.5416079029
  N         7.4571963130        9.7915419012       14.0308857997
  C         6.8364135403        7.5945796533       15.0141616543
  H         6.2418812125        5.5229335362       15.5575635359
  H        11.7756371965        6.8988356483        5.2964279229
  H        12.2008793153        6.9996094847        3.5812003172
  C        13.2624608700        5.3619646732        4.8090824291
  H         9.5063966509        7.4463118943        3.8105862280
  H        10.0386446843        6.5627047933        2.4922069080
  C         8.2348037542        5.7384839571        3.2449121056
  H        11.7422629955        4.4306800789        1.5521034234
  C        11.8420488995        1.5996568195        0.8409954339
  H        11.3324456485        3.2810845405       15.0628692194
  H        11.3985212243        1.4592906516       14.8115565158
  C        12.9038181070        2.1547909278       16.1089788673
  C         6.6116158805        8.2024705374       16.2967580353
  H        13.0418451325        4.6774196003        5.6341094178
  H        13.5419424831        4.6673255397        4.0667050656
  C        14.5283194008        6.1678574672        5.0441589508
  H         7.8920054070        5.2522085871        4.1213038767
  H         8.2355359160        4.9536596259        2.4895174107
  C         7.0321260665        6.6345132122        2.7679988310
  C        11.7891159539        0.2134143288        0.6511746321
  C        12.1788753365        2.4194178463       -0.3968253414
  H        13.7970571461        2.7351922327       15.9838972746
  H        13.3108748285        1.1197581156       16.2208658330
  C        12.2610951553        2.4900360793       17.5048824484
  H         6.7281412334        9.2273368628       16.2825687207
  C         6.4644565662        7.7135368583       17.5716901791
  H        14.2646982190        6.9403401216        5.7536451342
  H        14.7768647165        6.6265177401        4.0620283201
  C        15.6640650978        5.3112220558        5.6966967180
  H         7.2532538102        7.6430460486        3.3229330868
  H         6.9515347085        6.8311294472        1.6212985508
  C         5.5941765963        6.1223404156        3.1945499284
  N        11.5982015140       -0.6374288823        1.6726707890
  C        12.1425326558       -0.3681723185       -0.5788297511
  C        12.4552476762        1.7812225807       -1.5979448156
  H        12.3222615237        3.4376641883       -0.2510330478
  H        11.2999934524        1.9610055749       17.5462607460
  H        12.0709057643        3.5550343805       17.4789700272
  H        12.8276549247        2.1381966059       18.3149511768
  S         6.1491956088        6.0703433406       18.1140609752
  C         6.4901828607        8.7514398985       18.6684914626
  H        15.2963472318        4.3923408612        6.1342981824
  H        16.3539312190        4.9577292404        4.9091413579
  C        16.4440540740        6.0311507014        6.7290250704
  H         5.2614859421        6.8322892174        3.9145289862
  H         5.6477223996        5.1213941561        3.6267359709
  C         4.5262651900        6.2445028445        2.0980941125
  S        11.6090240611       -2.0556703611        1.0600331188
  N        11.9872295558       -1.7147959252       -0.4772741298
  C        12.4469755977        0.3160660680       -1.7591865380
  H        12.7816739507        2.3624049322       -2.4633767184
  C         6.0046510241        6.8256339005       19.6943353482
  N         6.0984558024        8.1214692766       19.7906992844
  O         6.5318681702        9.9937099759       18.5401370318
  H        16.9228549408        6.8393209355        6.1880492230
  H        15.7577969324        6.4074229453        7.5104060619
  C        17.4217327535        5.0668115281        7.1805832374
  H         4.9754817814        6.3469742567        1.1072647252
  H         3.8672351281        5.3211850998        1.9935891232
  C         3.7295695247        7.5389300439        2.2811233714
  C        12.7902836970       -0.4286934729       -2.8912119869
  S         5.5211511500        5.9041981066       21.1023902020
  C         5.9484800117        8.8642991816       21.0341104350
  H        16.9874045169        4.5478750970        8.0319428945
  H        17.6691476631        4.2813344806        6.4524785741
  C        18.6748333455        5.8055732002        7.7058576560
  H         2.9879793685        7.3373761749        3.1252730424
  H         3.0296739935        7.6396594882        1.4748398766
  C         4.5065401777        8.8488718702        2.3793152485
  H        12.8804288777       -1.4875723652       -2.6869814847
  C        13.2809444319        0.0609560865       -4.1094750937
  H         5.3693706895        8.3409879421       21.8140651026
  H         5.4551815816        9.8472353520       20.7890493825
  C         7.2460751662        9.2184712334       21.7862227305
  H        19.0293462639        5.2114863487        8.5662958248
  H        18.4091931394        6.7854823782        8.0482133598
  C        19.7081175654        5.9079477258        6.5560354488
  H         4.5408328288        9.3171955918        3.3081258240
  H         5.4646908167        8.7389139719        2.0149770974
  C         3.8574815474        9.8378810650        1.4621007653
  S        13.6679214132        1.6741987499       -4.6163897969
  C        13.3916084634       -0.8800381694       -5.2548773001
  H         8.0723234052        9.3655372896       21.1331650129
  H         7.4790173277        8.3414236810       22.3216121000
  H         7.0748583843       10.1024564178       22.4541419773
  H        19.4163524163        6.5846011686        5.7810341045
  H        20.5951926530        6.2961111911        7.0816693130
  H        19.9057019718        4.9401435060        6.0425207515
  H         3.0825838349       10.4256769928        1.9620310352
  H         4.5877776104       10.6384849104        1.2195703681
  H         3.4951935022        9.4671936251        0.4769717621
  C        14.1717093208        1.0276568386       -6.1582573390
  N        14.0064794965       -0.2636189424       -6.3096412441
  O        13.2586093131       -2.1365107259       -5.1311090444
  S        14.6763404399        2.0253926630       -7.5153987243
  C        14.3435926894       -1.0366065584       -7.4865752518
  H        14.7739479401       -1.9815534872       -7.1858055089
  H        15.1770241551       -0.4868610416       -8.0108563789
  C        13.2139166747       -1.0959301948       -8.4278618650
  H        13.5944712849       -1.4799088547       -9.3716326962
  H        13.0317318771       -0.0606961474       -8.6404550093
  H        12.2806946068       -1.6276499698       -8.1930723535
  H        -0.6634674532       13.6021230601       16.7980477908
  C        -1.5402721346       14.0883152740       16.4750971538
  H        -1.2674273927       14.8615326951       15.7774978600
  C        -2.2996102930       14.7982463093       17.7003294017
  C        -2.4637246786       13.1339536115       15.6822632468
  C        -2.8343202805       13.8431636209       18.7710884866
  H        -1.6611944916       15.4464503069       18.3053612452
  H        -3.1254670471       15.4705489835       17.4457108137
  H        -2.2759536334       12.9692381945       14.6530156117
  H        -2.2224894904       12.1530842661       16.0849570982
  H        -3.4641518606       13.4581546936       15.8764400433
  C        -1.7866246279       13.3642753468       19.7383664805
  H        -3.2767167275       12.9535907053       18.4058874209
  H        -3.6600902971       14.3273796473       19.2794021226
  C        -2.2966933025       13.3367933087       21.2084193146
  H        -1.3568626912       12.3782081395       19.5315539413
  H        -0.8883712258       13.9997483226       19.6128613456
  C        -1.3647152690       12.6082312938       22.1595861752
  H        -3.2696121904       12.7698565369       21.2041495821
  H        -2.5856103109       14.3506473097       21.5560037709
  C        -0.0669435564       13.4081604743       22.4218105329
  H        -1.8455693883       12.6028738800       23.1306383069
  H        -1.0533456865       11.5901348859       21.8555658874
  C         1.0200286486       12.7651007334       23.2992630813
  H         0.4315837614       13.7474056413       21.5450631031
  H        -0.3065210935       14.4135915798       22.7806506028
  C         1.3832823760       11.4013532436       22.6374620616
  C         0.5536789979       12.1029184185       24.5492362617
  C         2.2103729923       13.7237328746       23.4851699309
  C         1.0273849598       10.2979090697       23.4169388653
  C         1.8746984223       10.9720113965       21.4180485026
  C         0.5411274169       10.7559433151       24.6436524367
  C         0.1182532833       12.6896553993       25.7250994319
  H         2.3824242933       14.1465197535       22.4695398874
  H         1.9088704402       14.5382768692       24.1107110966
  C         3.5445019600       13.0200655051       23.8967471557
  S         1.4172702577        8.7642434278       22.7109178745
  C         1.9499796541        9.5786585799       21.2910556821
  H         1.9842577379       11.7653853691       20.6562593107
  C         0.0885016646       10.0936123182       25.7874134006
  H         0.0924821501       13.7501413808       25.8344924325
  C        -0.3721163679       12.0620870238       26.8379449635
  H         3.8142102819       12.4753336562       23.0100704816
  H         3.3501318517       12.3767674813       24.7878759864
  C         4.6835237181       13.8563411075       24.3785817060
  C         2.4962667836        8.8343130990       20.0887274767
  C        -0.3314419164       10.7237722733       26.9760564633
  H         0.0799089334        9.0172451971       25.7203923006
  C        -0.7891375115       12.4754363332       28.0825129996
  H         5.2282210305       13.3018021945       25.1324046681
  H         4.2393100781       14.6004599049       25.0938492039
  C         5.4899939609       14.4999116158       23.3256014752
  C         2.5095373138        7.4344703777       19.8281955739
  C         2.7647770106        9.6611850735       18.8863513639
  C        -0.7462357610       10.0082294048       28.2259432004
  C        -1.0144260067       11.3441323575       28.9022242665
  S        -1.0964704641       13.9428857047       28.8894656558
  H         6.1308642231       15.2651852101       23.7503708376
  H         4.7853823193       15.1040065458       22.6612654691
  C         6.2336608201       13.5262023681       22.3551310862
  N         2.2031912785        6.4927032128       20.7932457749
  C         2.7831236354        6.8877129329       18.5896542335
  C         2.9309183425        9.1699560776       17.6393594098
  H         3.0143880718       10.7149430879       18.9575830925
  C         0.3841084299        9.2155581777       28.8102603780
  C        -2.0374000542        9.1864846901       27.9507970071
  C        -1.4824676519       11.7502440305       30.2072820109
  C        -1.4597872862       13.1129343330       30.3120989398
  H         7.3266540310       13.6619602072       22.3016575554
  H         6.0482283708       12.5524218099       22.7592342683
  C         5.5251563759       13.4674152138       20.9487227100
  S         2.3001889495        4.9884559979       20.1420206566
  N         2.7646725140        5.4632480889       18.6214936982
  C         3.0196907003        7.6624728424       17.4482049292
  H         3.0569196205        9.9463173751       16.9054685812
  H         0.6487162957        8.2326655031       28.3713680671
  H         0.0632968212        8.7362475187       29.7873158956
  C         1.5617563805       10.0218568438       29.1270300795
  H        -1.6901002530        8.3797566819       27.2688764835
  H        -2.4022831733        8.7817696291       28.8662429973
  C        -3.2658990039        9.9890971417       27.4059173193
  H        -1.7373272523       10.9215925682       30.9420507590
  C        -1.6765452905       13.8084943203       31.6163368971
  H         5.3041053303       14.4970688379       20.6498363746
  H         4.5864431570       12.9066919718       21.0890008890
  C         6.4163962908       12.7990455401       19.9027391193
  C         3.1604085580        7.0071515092       16.1699832976
  H         1.8349664734       10.6570516862       28.3019420595
  H         1.3911783147       10.7452270062       29.9281734063
  C         2.8225591709        9.2345644857       29.5180513524
  H        -3.0058302167       10.3454607419       26.3526130970
  H        -3.3895938423       10.8947485435       27.9632636308
  C        -4.5234490700        9.0765620400       27.4984615229
  C        -1.6654544336       15.2207701803       31.8586843307
  C        -2.0782704252       13.0319901912       32.8168098085
  H         6.5326987768       11.6975412903       20.1753864227
  H         5.8462675245       12.6467831110       18.9334816055
  C         7.6809628525       13.5708194227       19.7035614175
  H         2.8503326879        5.9859118375       16.1259053608
  C         3.5509290207        7.4898092207       14.9399051694
  H         3.1831300895        8.5685801577       28.7476048053
  H         2.5423548606        8.7268267963       30.4311619374
  C         3.9675673555       10.1846301157       29.9029735201
  H        -4.4330770687        8.2207103917       26.7809658542
  H        -4.6015211887        8.3672460446       28.4143729465
  C        -5.7091016088        9.8584931256       27.2330933610
  N        -1.5509242098       16.2055383071       30.9453078396
  C        -2.0689111737       15.7195266021       33.0899102846
  C        -2.4042809523       13.5086136677       34.0758113376
  H        -2.1789005573       11.9847265547       32.6383719520
  H         7.7386265422       14.4763210903       20.2199492212
  H         8.5489434435       12.8864304787       19.9106636005
  H         7.7631739026       13.8541711699       18.6074110404
  S         3.9314523591        9.1164257326       14.6141388463
  C         3.4427042021        6.5501008736       13.7853684912
  H         4.1592351471       10.9904049651       29.1866815647
  H         3.8050927557       10.7786250392       30.7939374035
  C         5.3419836029        9.4899952936       30.0318169785
  H        -5.4991139803       10.9560800428       27.3962735771
  H        -6.3717379423        9.4818653099       28.0031509240
  C        -6.4148676621        9.4679799777       25.9380345324
  S        -1.6925146236       17.6824876025       31.6673624442
  N        -1.9921625551       17.1597538904       33.1427729541
  C        -2.4070709084       14.9719114631       34.1845482288
  H        -2.5277320872       12.8734226238       34.9274994917
  C         4.0627114355        8.5726443269       12.9757324966
  N         3.8129811288        7.2834633382       12.6734107847
  O         3.3288895307        5.3330885250       13.8702511053
  H         6.1234371527       10.1522855146       30.3475950283
  H         5.5256657394        9.1961103031       29.0836686101
  C         5.4171063369        8.2650899270       31.0127848076
  H        -5.6032613042        9.1090824953       25.2507872520
  H        -7.2030609926        8.8024864524       26.1580785285
  C        -7.0070467070       10.7163888509       25.3141511375
  C        -2.6177831969       15.6269014048       35.4506755229
  S         4.4785699609        9.7831207293       11.6608170713
  C         3.8194876788        6.7923770764       11.2950218710
  H         5.4213701911        8.4957321743       32.0793645126
  H         4.4986740496        7.6791797408       30.8917840859
  C         6.6770385326        7.3531805736       30.5460691868
  H        -6.3412496903       11.1075856078       24.5788497118
  H        -7.2311681532       11.5307224414       26.0447592106
  C        -8.3105580071       10.3465277825       24.6448620654
  H        -2.2283084103       16.6132455064       35.4716153409
  C        -3.1978287051       15.2320840098       36.6231916209
  H         4.6025876881        7.2860810545       10.7780502864
  H         4.2135478049        5.7956087442       11.4242078952
  C         2.3649510068        6.8471943915       10.7134060801
  H         7.6568099313        7.8170624081       30.7507934021
  H         6.7115774141        7.1519601463       29.5112388884
  C         6.6582974260        6.0549513809       31.3347205782
  H        -8.5590424340       11.0450913678       23.9028619959
  H        -8.1777850664        9.4304750912       24.0963723471
  C        -9.5037961185       10.3113107409       25.6014694979
  S        -3.9103403935       13.6737706182       37.0550527813
  C        -3.3174473839       16.2438588572       37.7097319445
  H         2.0384489322        5.8549295953       10.3132990443
  H         1.7156000482        7.0908909055       11.5245071323
  H         2.2554626657        7.5906595004        9.9050110964
  H         6.1447693011        5.3141026637       30.6887293831
  H         6.0715962366        6.1771861431       32.2101739578
  H         7.6486780176        5.7449400601       31.6503709337
  H        -9.6582986619       11.2639776701       26.0747165852
  H        -9.2848183131        9.6833098163       26.3713000484
  H       -10.4584296029        9.9542190984       25.2174822027
  C        -4.3084165994       14.4061264781       38.6406390521
  N        -3.9325958650       15.7223353089       38.7568054987
  O        -2.9301640943       17.3779332294       37.6025291661
  S        -5.0172813513       13.5084175851       39.9914345446
  C        -4.0105519173       16.4413046276       39.9936518096
  H        -4.1221098594       17.4872704919       39.7276354178
  H        -4.9428458032       16.0995145366       40.6006212814
  C        -2.6850027724       16.4011374827       40.8091448000
  H        -1.9246060776       15.5915636513       40.6675297067
  H        -2.1378519399       17.3249406360       40.6422143708
  H        -2.9264631469       16.4015546210       41.8367787829
