352
i=
  H         2.7180765532        1.7327255437       12.7766973000
  C         3.5402533480        2.4452642188       12.8523986345
  H         4.3626637622        1.6817511467       12.6981176007
  C         3.3064600473        3.4530094807       11.7130368198
  C         3.4713336784        2.9077366449       14.2028052098
  C         4.3904486103        3.4776019789       10.6655364750
  H         3.1252535672        4.4212444887       12.0159646246
  H         2.4172015145        3.1058482437       11.1953299881
  H         3.2196250909        2.1170095645       14.9146556820
  H         2.7922692812        3.7488746101       14.2815112722
  H         4.4099764649        3.3308249663       14.6050628170
  C         4.5965750574        2.1654384736        9.9181803622
  H         4.0403297102        4.1775069815        9.8786993875
  H         5.2840795104        3.8986951684       11.1493236206
  C         5.2822022851        2.4200558066        8.4865590297
  H         3.7161536944        1.5276926740        9.8781045625
  H         5.2822455329        1.5581655038       10.4649833059
  C         6.6623960658        3.1157381477        8.5001761898
  H         4.5943356690        3.0500050271        8.0194487152
  H         5.4218153568        1.5255596394        7.9107299575
  C         7.8660995095        2.2811841917        8.9732940627
  H         6.9738453719        3.2425357417        7.4904143002
  H         6.5585070802        4.1177816148        8.9345460576
  C         9.1353516936        3.0804585948        9.1050491162
  H         8.1196088974        1.5064609799        8.2464748624
  H         7.5408534727        1.6615482291        9.8393269997
  C         8.8710214980        4.4056169037        9.8209275394
  C         9.6242610300        3.8059299658        7.8683082348
  C        10.2870325044        2.3179171969        9.7627657596
  C         9.1535165764        5.5297478409        9.0800367306
  C         8.2893679483        4.7897620016       11.0100299588
  C         9.6669378150        5.1103396020        7.8323382281
  C        10.0185594955        3.1904716307        6.6935636305
  H         9.9507181463        2.0109673137       10.7250677521
  H        10.4538555392        1.3885142572        9.2465737469
  C        11.5348967124        3.1783881263        9.8771803263
  S         8.8766575886        7.0328680533        9.8603003875
  C         8.1952915869        6.1384726223       11.1837408400
  H         8.0270484070        4.0483711325       11.7761943435
  C        10.1008565526        5.7730891400        6.7242239190
  H         9.9160906529        2.1181416075        6.6484775486
  C        10.4943750030        3.7923040234        5.5572914910
  H        11.4185086368        4.2125370247       10.2527005496
  H        12.0291739460        3.4139896285        8.9496913753
  C        12.5911859766        2.4947375140       10.7695634520
  C         7.7072505263        6.8489700131       12.4328887902
  C        10.4495272331        5.1578317575        5.5068410098
  H        10.1420793247        6.8529793085        6.6808170427
  C        10.9727796553        3.4053271939        4.3564675815
  H        13.4627464114        3.0858992092       10.7212238557
  H        12.8518994214        1.5086585513       10.4234870324
  C        12.1961093720        2.5713165505       12.2940801760
  C         7.7404306838        8.2413307921       12.6636104748
  C         7.1646831288        6.0362236141       13.5801732570
  C        10.9199781478        5.7970419572        4.2275009323
  C        11.1599781947        4.4889154486        3.5312548954
  S        11.4732353185        1.9318292004        3.5448421868
  H        12.0919942300        3.6306810367       12.6281037400
  H        11.1376583848        2.1488436148       12.3993170966
  C        13.1913090078        1.8499824043       13.2198206096
  N         7.9897832506        9.1320789411       11.6681573610
  C         7.4821261195        8.7938795367       13.8849579344
  C         6.8325756760        6.6248094464       14.7850670024
  H         6.9435045072        4.9770400648       13.3766564024
  C        12.2471474451        6.5863590788        4.5316002802
  C         9.9329606250        6.7065409169        3.5930533521
  C        11.5139088761        4.1847896685        2.2584150948
  C        11.6935086088        2.8400391174        2.0578492376
  H        13.9838113964        2.5289478335       13.3963418180
  H        13.7919483940        1.1892404470       12.5545517660
  C        12.6320379446        1.0053526488       14.3296250187
  S         7.8266989660       10.6183821937       12.3536900409
  N         7.4953983207       10.1313505664       13.8745212481
  C         7.0831077025        8.0710178357       15.0142833263
  H         6.3842427082        5.9961774751       15.5199270207
  H        12.0688552308        7.2693184838        5.3762282552
  H        12.5373179091        7.0931155513        3.6529140199
  C        13.3460888331        5.6122671740        4.9339316371
  H         9.7548109980        7.6277433352        4.1666802168
  H        10.2856470381        6.9515080964        2.5924052511
  C         8.6008984357        5.9965647800        3.3249440082
  H        11.7160365936        4.9569557832        1.5797958123
  C        11.9886938417        2.1807679264        0.7585692765
  H        12.1717728301        0.1044786070       13.8866235699
  H        13.4301022559        0.5659051217       14.9238601231
  C        11.6800384684        1.7091087542       15.2772273877
  C         6.7857051049        8.7364017295       16.2527130960
  H        13.0859361294        5.2147751901        5.9417632565
  H        13.5165855118        4.8143106584        4.2506178551
  C        14.6993080560        6.3218453784        5.1263504469
  H         8.1260177614        6.0737587644        4.2905834803
  H         8.6324191349        4.9507733426        3.1192972604
  C         7.6163892737        6.8058860826        2.3712350382
  C        12.2907659770        0.8503194175        0.6120149960
  C        12.0921343064        3.0021655370       -0.4792286891
  H        10.9178227205        1.0382172281       15.6369055364
  H        11.1860455184        2.5337030230       14.7653284194
  C        12.5686129518        2.0771755024       16.4297564317
  H         6.9787391277        9.7868848326       16.2016047383
  C         6.3402726625        8.2351548050       17.4787289040
  H        14.4060337694        7.1232342946        5.7138422055
  H        15.1545566954        6.7095934769        4.1616083621
  C        15.5775486435        5.4276320380        5.9503079468
  H         7.5483270368        7.7555833312        2.8346251373
  H         8.0822540027        6.9661808677        1.3864499210
  C         6.2528774943        6.0757696286        2.1979043812
  N        12.2840662698       -0.0714841499        1.6482800755
  C        12.6009187225        0.3018162916       -0.5632930508
  C        12.4987401447        2.4354832967       -1.6700551267
  H        11.7955654981        4.0750156170       -0.5308303736
  H        13.3355351061        2.5303986823       15.9701952548
  H        12.9356320056        1.2549009247       17.0599998212
  H        12.0363079031        2.8543028509       16.9973016210
  S         6.0264691822        6.5649978576       17.9828643745
  C         6.4224158106        9.1882605192       18.6557733074
  H        15.0920484978        4.9139855555        6.8163072517
  H        15.9618748444        4.5810268459        5.4140754805
  C        16.7361429083        6.3383035660        6.4944116201
  H         5.8435248645        5.7379456886        3.1467365836
  H         6.4112459865        5.1207930500        1.6786993106
  C         5.1440188681        6.8630990161        1.3810051889
  S        12.3871447779       -1.5558511402        1.0042546878
  N        12.8447977339       -1.0568784257       -0.4684691110
  C        12.6799857147        1.0004837920       -1.8043483890
  H        12.4648333239        3.0324923263       -2.5833842006
  C         5.7572594243        7.2060387985       19.6378189227
  N         5.9722618282        8.5978127983       19.7943686636
  O         6.5876930513       10.3655598163       18.4193499175
  H        17.3237988025        6.8389400843        5.7056199953
  H        16.3112909721        7.0158649688        7.2614291061
  C        17.7735744603        5.4731986311        7.2282319584
  H         5.7393589968        7.3237986556        0.5754698916
  H         4.4437443755        6.1266035604        0.9059868749
  C         4.4270578846        7.9073268773        2.2486022957
  C        13.0634337798        0.2813884728       -2.9609012313
  S         5.5257918780        6.2182041971       21.1057811132
  C         6.1320810605        9.3096534000       21.0705679461
  H        17.3196619021        5.0807226200        8.1295264705
  H        17.8774498158        4.5024118324        6.7178716832
  C        19.0724256282        6.1976386833        7.7229895173
  H         4.9603498713        8.1476948968        3.1397178801
  H         3.5664412556        7.4622535362        2.6939528628
  C         4.0627471749        9.1302384905        1.4195752656
  H        12.9431244390       -0.7692019602       -2.9633221291
  C        13.6346937039        0.6510467231       -4.1909772516
  H         5.5424264142        8.9096472992       21.9495964420
  H         5.8719558953       10.3168312496       20.9501370018
  C         7.6866858323        9.3736288100       21.4238872725
  H        19.3742516799        5.5864870974        8.6083376071
  H        18.8573094055        7.1551407397        8.1116640269
  C        20.1517132332        6.3213589488        6.6465304051
  H         3.6563876050        8.8003295120        0.4548140559
  H         3.1914286100        9.5564596696        1.8128400994
  C         5.1237098685       10.1520406589        1.2011484820
  S        14.2044144698        2.1687309121       -4.5379881810
  C        13.7025752441       -0.3526144299       -5.2437021609
  H         7.8600174479        9.0461672124       22.4198389449
  H         8.0628052011       10.3838656536       21.2854380385
  H         8.2137186978        8.7049844208       20.7734199550
  H        20.2067144567        5.3479210400        6.1079728998
  H        19.9674782065        7.1398845972        5.9654931425
  H        21.1497795643        6.3838101536        7.0792462826
  H         5.4192179911       10.6037217093        2.1475753143
  H         6.0447596618        9.6981257076        0.7171301464
  H         4.7391582970       10.9329541021        0.5213140034
  C        14.5635061464        1.5244395495       -6.2171044856
  N        14.3008322115        0.2372382399       -6.3157620083
  O        13.2892026119       -1.5079459544       -5.2544162763
  S        15.3814895821        2.4453635457       -7.4146966543
  C        14.4884386682       -0.5117192814       -7.5119416756
  H        14.7184033116       -1.6099279639       -7.4322738855
  H        15.1840810564       -0.0886423195       -8.2007020251
  C        13.2375322514       -0.3381771873       -8.4096885730
  H        12.9708732207        0.6604418659       -8.5884804981
  H        12.2819567566       -0.8073379846       -7.8841453606
  H        13.4320049926       -0.7605945786       -9.3368281377
  H        -2.9118653317       15.4815315158       15.6883605104
  C        -3.1891039684       14.7926700232       16.4047846667
  H        -4.1241666182       15.1655896370       16.8074408906
  C        -2.1741552730       14.8749973572       17.5586407068
  C        -3.5186193988       13.4193200403       15.7837430250
  C        -2.6172513594       14.2070451862       18.8738118090
  H        -1.2525283016       14.3431744086       17.2039917511
  H        -2.0475094227       15.9977475834       17.8745949730
  H        -2.7654722900       12.6951514954       15.6532211994
  H        -4.3392154885       12.9212236816       16.2380050193
  H        -3.8272228698       13.5611286257       14.7352903224
  C        -1.5224140517       13.7454159694       19.7842263424
  H        -3.1534299043       13.2398232015       18.6149457557
  H        -3.2774485460       14.9352534449       19.3662763431
  C        -1.9274779642       13.6227574527       21.3016982504
  H        -1.1149073885       12.7992038412       19.4669173922
  H        -0.6210266680       14.4018406393       19.6944019135
  C        -0.8725881455       12.9755084522       22.1836420079
  H        -2.9148228323       13.1730830633       21.4189108449
  H        -2.0935744337       14.5899979544       21.7782726035
  C         0.3649180341       13.8348879403       22.5846636938
  H        -1.4635311406       12.5664534389       23.0505890795
  H        -0.5429921207       12.0501558202       21.7742292393
  C         1.5026261944       13.2334571412       23.3285968344
  H         0.6986143455       14.3771949162       21.7382435276
  H         0.0791407169       14.6237958536       23.3469105022
  C         1.8317712899       11.8848256419       22.6838894760
  C         1.0196605826       12.4806706267       24.5638517126
  C         2.7150129545       14.1505052848       23.5471912115
  C         1.4874273093       10.7830377772       23.4807428597
  C         2.4799484201       11.5440839925       21.5459447345
  C         0.9358147189       11.1350719538       24.6979808917
  C         0.4996830809       13.0548156190       25.6981181130
  H         2.9201252989       14.6126949998       22.5763987608
  H         2.4070376252       14.8768264568       24.3105146507
  C         3.9876543774       13.3386870817       24.0784559951
  S         1.6011760391        9.3611721697       22.6792400810
  C         2.3876519963       10.1981849507       21.3407082150
  H         2.9093395538       12.3829097016       21.0024618912
  C         0.4568385346       10.4583154794       25.7873544623
  H         0.7267529967       14.1297771831       25.7124605929
  C        -0.0217425392       12.4903167881       26.8267093840
  H         4.1392655683       12.5493420067       23.3176234773
  H         3.7014305832       12.9027187109       25.0179584372
  C         5.2889905949       14.1654843751       23.9591874477
  C         2.6540041922        9.5655936990       19.9899876798
  C        -0.0169357395       11.1438863613       26.9038865249
  H         0.4634228766        9.4048014407       25.8516546746
  C        -0.4698174624       12.8980095057       28.1131152778
  H         6.1060096699       13.6305925103       24.4175201559
  H         5.0933732137       15.1794129304       24.4489957401
  C         5.7777956025       14.7258118273       22.5552719198
  C         2.3866880354        8.2046828351       19.6878209416
  C         3.0754036361       10.4069517019       18.8526943909
  C        -0.4944589714       10.4765929220       28.1933954036
  C        -0.6430325289       11.7753012651       28.8884521660
  S        -0.5920699235       14.4203877620       29.0002492210
  H         6.3116836252       15.7033907331       22.6774094344
  H         4.8977027496       14.8556827708       21.9777691563
  C         6.7095513971       13.7605402580       21.8141452972
  N         1.9958675654        7.1455194393       20.5770885214
  C         2.6914649115        7.6517606718       18.4297380472
  C         3.2040875139        9.8429318532       17.5812423712
  H         3.3374784987       11.4656117687       18.9571639369
  C         0.6329617310        9.6525777057       28.7990563847
  C        -1.7486336075        9.6192330553       28.0064496054
  C        -0.9965324753       12.1222956381       30.2091198889
  C        -0.9058785623       13.4901043779       30.4001767475
  H         7.7901195277       14.0612239922       21.8971167938
  H         6.5834613051       12.7262968751       22.0598355785
  C         6.3451567696       13.8970206933       20.3007351812
  S         2.0374631601        5.7469332361       19.8084867972
  N         2.4257039869        6.2914027952       18.3011277626
  C         3.0563941703        8.3802749204       17.2941170830
  H         3.5654453721       10.4951313471       16.7818075634
  H         0.8908475155        8.7626571265       28.2950870918
  H         0.0921985120        9.3613451240       29.6305722857
  C         1.9064610131       10.4100669165       29.3087896507
  H        -1.4934109168        8.8200816196       27.3192241504
  H        -2.0269368524        9.2473428690       29.0786366410
  C        -2.9120280521       10.3608458142       27.3734218295
  H        -1.2433244143       11.3521701288       30.8995931971
  C        -1.1033009926       14.2298866272       31.7001886190
  H         5.7243628859       14.7524382268       20.0661937060
  H         5.7501047102       13.0179783770       20.0626580202
  C         7.6968153072       13.9232029767       19.5002500354
  C         3.3870094813        7.7328367629       16.0449532674
  H         2.2787865666       11.2629465858       28.6552288032
  H         1.6555969713       10.8055913155       30.2676539427
  C         3.0861955282        9.5003701831       29.6395631704
  H        -2.6499231724       10.6605216314       26.3628369737
  H        -3.2134972667       11.1505303979       28.0812785699
  C        -4.0941192924        9.5062613764       27.1491964608
  C        -1.2995266860       15.6295227008       31.8623070449
  C        -1.1251931524       13.4119775224       32.9542751306
  H         8.2754506182       14.7490950264       19.8430796482
  H         8.3437677980       13.0766887710       19.7498741074
  C         7.5432843868       14.0969748270       17.9581275118
  H         3.3096623237        6.6390901909       16.0122804273
  C         3.6782119884        8.2338449772       14.7606362032
  H         3.1449673852        8.7706592840       28.7961876111
  H         2.7791835392        9.0279133183       30.5875649533
  C         4.4315986127       10.1118160646       29.7655384021
  H        -3.9183428736        8.7618994477       26.3979349279
  H        -4.1842732193        8.8176134218       28.0100158697
  C        -5.2708435400       10.3594151111       26.8341223009
  N        -1.1004188298       16.6043324371       30.8816361500
  C        -1.6718416995       16.1992425471       33.0817098819
  C        -1.4980044903       13.9655705830       34.1804563948
  H        -0.9667865412       12.3512793456       32.9021384516
  H         8.3443012641       14.5735938393       17.3974275654
  H         7.5385188206       13.1116046314       17.4772639221
  H         6.6467675672       14.6389035940       17.7819183750
  S         3.8235285460        9.9288388499       14.3023692064
  C         3.8817380131        7.2689545594       13.6449403025
  H         4.5355461370       10.9920813362       29.1442883601
  H         4.5470669100       10.5337349219       30.7376623564
  C         5.5795200374        9.1684493593       29.5739055097
  H        -4.9268561466       11.1393803839       26.1364911297
  H        -5.4722399473       10.8876941860       27.7440403343
  C        -6.4837716393        9.7197773713       26.2486991920
  S        -1.4534238463       18.0500005304       31.6005091773
  N        -1.8250857429       17.5821207733       33.0831380171
  C        -1.9135839085       15.4242459080       34.2351166542
  H        -1.5294742011       13.2890807080       35.0063098763
  C         4.2248115222        9.2900529055       12.6439748023
  N         4.2270931100        7.9413023992       12.5719343474
  O         3.9048477305        6.0436283536       13.7530337646
  H         6.4616418378        9.7759049743       29.3711160096
  H         5.4675478214        8.5142941210       28.7383245635
  C         5.8739181418        8.2916161512       30.7877460480
  H        -6.1664058760        9.1984921576       25.3686111186
  H        -6.9090698075        8.9795943477       26.8744222932
  C        -7.5093918833       10.6964817421       25.8020014378
  C        -2.2626673872       16.1863490014       35.3833918930
  S         4.5997611717       10.2716189088       11.1543668009
  C         4.4564601833        7.2468217758       11.3125108962
  H         6.3907435408        8.8386588129       31.5643800928
  H         4.8590915144        8.1331025007       31.0956512471
  C         6.4756440937        6.8874003324       30.5590043758
  H        -7.0184227350       11.3957231715       25.1121128533
  H        -7.8184045064       11.3723163919       26.5817550741
  C        -8.7704890838       10.0908291239       25.0684369669
  H        -2.2807497861       17.2104238124       35.3424715448
  C        -2.6522845110       15.8579617455       36.6630503200
  H         5.2886581229        7.6339673344       10.7585715933
  H         4.8632885062        6.2464804684       11.5383312555
  C         3.1698810963        7.2223342025       10.5579027450
  H         7.5877168816        7.0371951620       30.4221669107
  H         6.0922094027        6.4462962182       29.6030333666
  C         6.2109431112        5.7551526554       31.5834951076
  H        -9.1115327566       10.7955386413       24.3132763923
  H        -8.4126139419        9.1197471405       24.7858005386
  C        -9.8527158305        9.8815902522       26.0718077987
  S        -3.0679385501       14.2734631105       37.1729812118
  C        -2.9243854914       16.9694293046       37.6311421211
  H         3.0973480637        8.0617967638        9.8927700700
  H         3.1078368393        6.3526539202        9.8941810229
  H         2.3254579696        7.0702471115       11.2486266375
  H         5.2614636062        5.3210275899       31.5291686952
  H         6.3481003698        6.2413723588       32.5334956995
  H         6.9165722513        4.9944209146       31.5426190485
  H        -9.4250417899        9.3797892292       26.8728830321
  H       -10.6813678777        9.3752123754       25.6376547993
  H       -10.2466193116       10.8596210720       26.4236272765
  C        -3.4929899352       15.0596098432       38.7101478601
  N        -3.4610866290       16.3874483205       38.7352405874
  O        -2.6738631271       18.1240209369       37.4587125857
  S        -3.7176746459       14.1829117223       40.2548068949
  C        -3.6566191188       17.1486446194       39.9526399263
  H        -4.2348640242       18.0589337474       39.8771130318
  H        -4.1676516365       16.5742016873       40.7424669094
  C        -2.2934105209       17.4443490118       40.6006215746
  H        -1.8717804536       18.4792495685       40.4019217997
  H        -2.5100832951       17.3868460532       41.6697008320
  H        -1.5423849329       16.7066621201       40.2103113614
