352
i=
  H         4.6704241145        1.1612120351       12.4708972832
  C         4.1548245989        2.0689484822       12.7405135259
  H         4.9933709595        2.7550745409       12.9273654249
  C         3.2532185175        2.4469751339       11.5226025839
  C         3.3868390520        1.8359793553       13.9954402337
  C         4.1645815475        2.7444805286       10.2519393453
  H         2.6601702342        3.2440266666       11.8581746505
  H         2.5531514838        1.6654581497       11.1903149713
  H         2.6941507416        2.6472644242       14.1617519219
  H         3.9812031598        1.7741861854       14.9112146530
  H         2.7583539098        0.8901134063       13.9800954474
  C         4.4540988083        1.5322093536        9.3891097762
  H         3.5485151882        3.4739690141        9.6907089508
  H         5.0319821605        3.2791275944       10.5580048460
  C         5.0091574905        1.7600525473        7.8742827311
  H         3.4585394834        1.0109069237        9.3559822018
  H         5.1058080716        0.8737666962       10.0204261227
  C         6.3499146865        2.4089342651        7.9625978662
  H         4.3193214163        2.3755560761        7.2786143412
  H         5.1265757151        0.7857702049        7.3124635047
  C         7.4548295975        1.6290319504        8.7578083080
  H         6.5923885608        2.8501303128        7.0527445535
  H         6.1683559987        3.3455715116        8.5036388745
  C         8.7812699043        2.4427638237        8.9498257950
  H         7.7300372832        0.7246050451        8.0814992429
  H         7.1688372993        1.1895424544        9.7070305491
  C         8.4263565095        3.7381893112        9.7257780450
  C         9.3524839866        3.1383932218        7.7595877485
  C         9.8137916145        1.6224159097        9.7340298978
  C         8.8048817646        4.8383689747        8.9863213089
  C         7.9345634812        4.1442515397       10.9931929217
  C         9.3312284125        4.5197615312        7.7147427357
  C         9.8052910853        2.5003063111        6.6005743433
  H         9.2444414696        1.2052805815       10.6554350968
  H        10.1841676881        0.7747815585        9.1557139296
  C        10.9815274267        2.4545269813       10.3108955208
  S         8.4961582005        6.3355721130        9.7377658965
  C         7.9427927116        5.4718804724       11.1370194338
  H         7.5748566397        3.3883133568       11.6917042462
  C         9.7279273633        5.1390149316        6.5447473278
  H        10.0138081330        1.4247444728        6.7120033176
  C        10.1565846443        3.1386362113        5.4616526214
  H        10.7448744441        3.3955478278       10.8617053148
  H        11.6033414478        2.5376834453        9.4524662160
  C        11.9654751933        1.6286403692       11.2269881063
  C         7.4332439169        6.1896345541       12.3635000032
  C        10.1359160015        4.5163422942        5.3753112530
  H         9.7676479457        6.2125569537        6.4953080066
  C        10.6212726669        2.8032097371        4.2291826158
  H        12.8356827281        2.3552779032       11.5117484910
  H        12.2199363170        0.7527730308       10.6602125101
  C        11.4245341315        1.1867740158       12.6106713768
  C         7.3743813515        7.5910730083       12.5453522794
  C         7.1590714761        5.3776777018       13.6058365655
  C        10.5607016998        5.1982983296        4.0669723951
  C        10.7660240726        3.8839025334        3.3601607591
  S        11.0393671467        1.2670648217        3.5162388285
  H        10.6481375197        1.8008065067       12.9497983339
  H        11.0764611285        0.2080907056       12.5614437611
  C        12.5006360588        1.2756170476       13.7541383797
  N         7.7218484113        8.5230202887       11.5593732183
  C         6.9183146873        8.1060399109       13.7272709419
  C         6.8437037940        5.9768184634       14.8069154868
  H         7.2549147338        4.3669019637       13.5916373985
  C        11.8277845192        5.9670078125        4.1869585722
  C         9.4693096853        6.0528270464        3.3161679937
  C        11.1005498923        3.4214674402        2.0599193592
  C        11.2078904705        2.1117817859        1.9841625440
  H        13.4134011204        1.8054757680       13.5585840133
  H        12.7867047833        0.2047182682       14.1194673010
  C        11.9217712823        1.8998791208       15.0312421816
  S         7.5540654311       10.0248855692       12.2592841974
  N         6.8667949412        9.5286268462       13.6435329330
  C         6.6712218881        7.4033953319       14.9323619473
  H         6.7702177281        5.3584313906       15.6642494275
  H        11.7159218188        6.7853261214        4.8846446071
  H        12.0943044177        6.4085904232        3.2501795490
  C        13.0077570301        5.2162391697        4.7634788921
  H         9.0547274502        6.9011661015        3.8374037795
  H         9.9196977435        6.4747003609        2.4004327084
  C         8.2012303495        5.2615905959        2.8082903158
  H        11.2566119682        4.1453828526        1.2979081151
  C        11.5686960424        1.3966878735        0.6982358382
  H        11.8605306914        2.9557740482       15.0022595147
  H        10.8489450737        1.5971563307       15.0252539170
  C        12.8150940853        1.6476794411       16.2605991419
  C         6.4342375123        8.0651284416       16.1811569117
  H        12.7339274629        4.7136932513        5.6604364783
  H        13.3029454994        4.4067504293        4.1573396219
  C        14.1925214186        6.1338213338        5.1049594895
  H         7.7409348438        4.6675486956        3.5699782637
  H         8.5221185404        4.5016371910        2.1366390218
  C         7.2315341370        6.1692009700        2.0800369777
  C        11.7528060480        0.0081703056        0.4600849621
  C        11.8038428742        2.1534268308       -0.5225442583
  H        13.7983196903        2.0054581797       16.0529475702
  H        12.8055670078        0.5810608811       16.4756243828
  C        12.3368152836        2.3128325472       17.5448867879
  H         6.3109527912        9.1217023290       16.1376499493
  C         6.0822877801        7.5883932506       17.4262613008
  H        14.0574139223        6.6804619565        6.0425543472
  H        14.4253015706        6.8563924021        4.3929645193
  C        15.4676836128        5.3709532695        5.4246539937
  H         7.0360722511        7.0395338372        2.6629580881
  H         7.7286328428        6.5537641638        1.1982145455
  C         5.9265475126        5.5027428769        1.6635275230
  N        11.6675904656       -0.9218492213        1.4734944243
  C        12.1258834583       -0.5642250174       -0.7363757956
  C        12.2954837553        1.5882741471       -1.6898494048
  H        11.6773925449        3.3050278492       -0.5679092520
  H        12.0809702631        3.3135306552       17.2009396432
  H        13.1317255252        2.0969102225       18.2914654567
  H        11.4101705449        1.7478623767       17.7553197418
  S         5.9344633446        5.9472719230       18.0631179364
  C         6.0029440540        8.6347094458       18.5036851557
  H        15.3796633692        4.3959872651        4.9298522754
  H        16.3608590092        5.9101847787        4.9703577785
  C        15.8012668677        5.2230054302        6.8963692980
  H         5.1542136289        5.4569653395        2.4862907195
  H         6.1318580604        4.4579922557        1.3938451676
  C         5.3841161811        6.2107622288        0.4202937477
  S        11.8087499759       -2.4422136360        0.8541351218
  N        12.2629091444       -1.9446836921       -0.6584384337
  C        12.4216936478        0.1425902645       -1.8710787275
  H        12.3769603792        2.2311403003       -2.5290742796
  C         5.5235847716        6.6756889895       19.6608153457
  N         5.6709297748        8.0230345908       19.6845844825
  O         6.1461666881        9.8650095471       18.3124461585
  H        15.8735039649        6.1478877846        7.4392972854
  H        15.0110664809        4.6364024166        7.4282875381
  C        17.1017317249        4.4060830982        7.0738188233
  H         6.1685711470        6.4541600619       -0.2923364052
  H         4.7405104096        5.6008387421       -0.1426178462
  C         4.6040336342        7.4207146883        0.6337646020
  C        12.8229224168       -0.4633193716       -3.0402022498
  S         5.1569766293        5.7587412178       21.0310954263
  C         5.7821790145        8.6970611115       20.9908759119
  H        16.9735791807        3.8438236756        8.0252064506
  H        17.1929775561        3.5809550759        6.3384840498
  C        18.3591921273        5.2681843172        7.1384216185
  H         3.8874775850        7.3689865088        1.4992073570
  H         3.9180229099        7.5120900427       -0.1736619851
  C         5.3512466744        8.7257401405        0.6822263740
  H        12.6730475616       -1.5008683558       -2.9947111605
  C        13.4557993404       -0.0232968836       -4.1716600329
  H         5.0337798225        8.3246403325       21.6788377839
  H         5.4238824073        9.7233213216       20.8696743428
  C         7.2167892266        8.7896698210       21.5688772138
  H        18.7594184895        5.1854040291        8.1587308594
  H        18.0826402761        6.3689993260        7.0211679366
  C        19.4861739588        4.9448772732        6.1260031991
  H         5.6598825324        8.9045548726        1.6995663951
  H         6.2934491921        8.6560783496        0.1102185141
  C         4.4550648815        9.9169011005        0.2519892187
  S        13.9030098317        1.5397209017       -4.6597170122
  C        13.6335478119       -1.0956092990       -5.1985491684
  H         7.9482913073        9.1058215609       20.8458577436
  H         7.5078840010        7.8884754460       22.1222952618
  H         7.1654221236        9.6026531828       22.2956873577
  H        19.3575335342        5.5669578422        5.2360685353
  H        20.3994434130        5.1879807997        6.5814853699
  H        19.3722288331        3.9241888786        5.8370880470
  H         3.9046936737       10.1883447431        1.1752380296
  H         5.0553473104       10.7891028112       -0.0213516690
  H         3.8207083080        9.6127814133       -0.5544619472
  C        14.2161011617        0.7979411721       -6.2967354368
  N        14.1218494395       -0.5487761050       -6.3065073715
  O        13.3057257442       -2.2610784350       -5.0385514333
  S        14.6024969527        1.5740661374       -7.8626516701
  C        14.3499745782       -1.3831469883       -7.4723110463
  H        14.4693759484       -2.4248754959       -7.1849085981
  H        15.3028368133       -1.0986918773       -7.8639599073
  C        13.1054625898       -1.3559555717       -8.3813146767
  H        12.2164831727       -1.3428581769       -7.7681940524
  H        13.2366670072       -2.2710502196       -9.0192247286
  H        13.1097290084       -0.4085158150       -8.9934516232
  H        -3.3216244794       14.4216877238       16.5595941206
  C        -3.1334218011       13.4195502075       16.4176491523
  H        -4.1062042929       12.9160161712       16.6113280384
  C        -2.1985145309       13.0237308389       17.5149290447
  C        -2.7832593496       13.0664803639       14.9586386529
  C        -2.7383364451       13.5687781643       18.8609797569
  H        -2.0303594704       11.9711210586       17.6474612501
  H        -1.2610691001       13.4525330769       17.2156635351
  H        -1.9931226117       13.6574634423       14.5131175970
  H        -2.5049018305       12.0016343705       14.7846713131
  H        -3.6701138618       13.1917041766       14.3429817586
  C        -1.6573083376       13.3734738791       19.8875360945
  H        -3.6925221632       13.0912763082       19.1181154392
  H        -2.9158332786       14.6528436748       18.8458568110
  C        -2.3236638075       13.3311511524       21.2763765039
  H        -1.2664720420       12.3659307872       19.8132393876
  H        -0.9663912441       14.1709507176       19.6878920219
  C        -1.2950736973       12.8446485472       22.2912916435
  H        -3.1918782011       12.6248793210       21.3417644706
  H        -2.6980538036       14.2849623468       21.5727358635
  C        -0.0615975024       13.7116599965       22.4579033755
  H        -1.7713853090       12.7571923082       23.2691824255
  H        -0.9476816265       11.8382091883       22.0638892145
  C         1.1310976152       12.9458827485       23.1378733682
  H         0.2886497381       14.1025421707       21.5272842727
  H        -0.2725748744       14.5075567290       23.1371829925
  C         1.5776222028       11.6739127529       22.4330849025
  C         0.7699841064       12.2371419057       24.3582814651
  C         2.2891395949       13.9592817027       23.4302324455
  C         1.3336909086       10.5480938999       23.2007103038
  C         1.9253060136       11.2686373381       21.1302864858
  C         0.8276255649       10.8977398417       24.4618721489
  C         0.3302904408       12.8767013068       25.5726208564
  H         2.6520850314       14.3858930055       22.4410567935
  H         2.0901160993       14.8239624431       24.0564321611
  C         3.6479101751       13.3569045872       23.8418674350
  S         1.6302372516        9.0699412576       22.4218572626
  C         2.1740310748        9.9367328353       20.9918494986
  H         2.0324228281       12.0318915917       20.3660793913
  C         0.4448734427       10.2724509531       25.6417207199
  H         0.2637618730       13.9965934167       25.5418245666
  C         0.0607684904       12.2817601327       26.7267772882
  H         3.9303574217       12.4642804675       23.2073576472
  H         3.4736522522       12.8832974867       24.8464303978
  C         4.8071397673       14.3005828859       23.6890796506
  C         2.4892703926        9.1549709516       19.7424721788
  C         0.0322806300       10.9366287287       26.7989445354
  H         0.4420558094        9.2028627104       25.6676266298
  C        -0.4184964838       12.7142402130       27.9792291918
  H         5.6174850805       13.8720878587       24.2799670634
  H         4.6066789678       15.1857835423       24.2435551199
  C         5.3612432607       14.5381982290       22.2257119077
  C         2.3867496185        7.7559240160       19.6091043627
  C         2.6904530995        9.9067337952       18.5596483088
  C        -0.3577611148       10.2645270298       28.0736264702
  C        -0.6334061032       11.6054669333       28.8097703030
  S        -0.8589353256       14.2192031936       28.7111733000
  H         5.8636747435       15.4945843919       22.4195722283
  H         4.5681269045       14.7962926033       21.6047047740
  C         6.2761062372       13.4078367780       21.8049809690
  N         2.2100037447        6.8235950560       20.6243735839
  C         2.5750160937        7.1900573478       18.3814647217
  C         2.8241649912        9.3137832549       17.3087350293
  H         2.7565021618       11.0193513745       18.4975716891
  C         0.6980019504        9.4464673428       28.8405754152
  C        -1.6469714157        9.5193669272       28.0006380354
  C        -1.0243287613       12.0028632342       30.0754884233
  C        -1.1174043904       13.3497051126       30.2489634056
  H         7.2624890785       13.8251204632       21.6059859677
  H         6.4875888680       12.6913112587       22.5937595420
  C         5.6355858223       12.6551046412       20.6125470205
  S         2.0080109647        5.3689216722       19.9447213181
  N         2.2759646180        5.8504055108       18.4186978044
  C         2.8896578008        7.8729501537       17.2074031103
  H         3.0410029388        9.9750097694       16.4219526121
  H         1.0163408314        8.6012347726       28.2085038585
  H         0.1748099052        9.0073989527       29.6890877130
  C         1.9432916167       10.2519360044       29.2156592492
  H        -1.5590898389        8.7033225857       27.3501460652
  H        -1.8935616590        9.1373396477       28.9850270704
  C        -2.9491811558       10.1930520191       27.4998718269
  H        -1.3391204174       11.2306163899       30.7507803579
  C        -1.4113624534       14.0592955722       31.5448297702
  H         4.6461692774       12.2474943915       20.8775079439
  H         6.2522193022       11.7940627308       20.4609031008
  C         5.7032083260       13.4440684991       19.3639420332
  C         3.1610531680        7.1870229925       15.9885258350
  H         2.3405444656       10.8071913727       28.4099154886
  H         1.6826764304       10.9315130885       30.0907783297
  C         2.9769734724        9.1533211467       29.5322551033
  H        -2.7615162261       10.5789966789       26.5116437092
  H        -3.2399785458       11.0853756480       27.9970955030
  C        -4.2190076809        9.2982105392       27.1780681579
  C        -1.6879033781       15.4164134733       31.7766361315
  C        -1.5673420006       13.1415174532       32.7499247514
  H         5.0716203046       12.8462306565       18.7365639433
  H         5.2609237741       14.3918115242       19.3971923416
  C         7.1353362980       13.5198267637       18.8856547546
  H         3.0768819503        6.1583350700       16.0920895413
  C         3.4512678246        7.6224594755       14.7209088934
  H         3.1874514326        8.6038893071       28.6192489437
  H         2.5114992506        8.3239082211       30.1241449960
  C         4.1934028658        9.6716669170       30.3082199149
  H        -3.8454387091        8.4862674962       26.5169216549
  H        -4.5406190343        8.7464166697       28.0950754868
  C        -5.4088978927       10.0915625544       26.6184687411
  N        -1.4989806765       16.4312190904       30.8126773100
  C        -2.0491654823       15.8681444476       33.0225201561
  C        -1.8638871751       13.6662229661       33.9683051884
  H        -1.3746433163       12.0871471498       32.6559669209
  H         7.0877027095       13.7444842813       17.8682559131
  H         7.6264237521       14.4061422546       19.2747646708
  H         7.5569887826       12.5504671872       18.8952815298
  S         3.7996175219        9.1733416509       14.1614792287
  C         3.5665958736        6.5667194955       13.7269445260
  H         4.5495366708       10.6258095546       29.9143289800
  H         3.8926279575        9.8493292143       31.3460039008
  C         5.3014466514        8.5948880346       30.1470082304
  H        -5.0691806008       11.0536066965       26.1466570693
  H        -6.1087026381       10.2660477063       27.4120575803
  C        -6.1367572196        9.2513124177       25.5834487399
  S        -1.8821754880       17.8372945791       31.5718219858
  N        -2.3393585952       17.2231270640       33.0065636947
  C        -2.1395088510       15.1134486497       34.1510040704
  H        -1.8689827605       12.9170870274       34.7380146377
  C         3.8381716386        8.4889124510       12.5405753281
  N         3.8060385637        7.1426245608       12.5152970155
  O         3.3025788761        5.4064423869       13.9712947385
  H         6.2364998675        9.1805882232       30.3370112239
  H         5.4108393895        8.2399478558       29.1771197785
  C         5.1073754870        7.4778759610       31.1000231535
  H        -5.3989445714        9.1490904094       24.7718521021
  H        -6.3697221960        8.2822412240       26.0424205168
  C        -7.3815796573       10.0710081751       25.1454087075
  C        -2.4013347799       15.7144667307       35.4068887481
  S         4.1884048001        9.4223704595       11.0663322089
  C         3.6544519715        6.3610994962       11.2400234125
  H         5.3072856195        7.6459694352       32.1617124362
  H         4.0894385261        7.0768873422       31.2128209924
  C         5.9593844982        6.3793900057       30.6821536256
  H        -7.3874047449       10.2475081377       24.0848007250
  H        -7.3211753945       11.0722428318       25.5640820788
  C        -8.6917497281        9.4159949077       25.4768872836
  H        -2.4466266170       16.7967945472       35.5448200663
  C        -2.9214364134       15.2262500825       36.5812097648
  H         4.3476169243        6.7329452859       10.4554647285
  H         4.0177294659        5.3417966711       11.4396876395
  C         2.1871956461        6.4536555181       10.7330412606
  H         6.9269611946        6.7552669859       30.3908805795
  H         5.5661109734        5.8648354846       29.7743320844
  C         6.2029483843        5.2595117744       31.6880106801
  H        -9.5246676057        9.6472720298       24.7821529644
  H        -8.5932880477        8.3164907953       25.4270983513
  C        -9.1330932893        9.6999181467       26.9015181101
  S        -3.4923977215       13.5862243899       36.8704125843
  C        -3.1233252074       16.1127455838       37.7622721590
  H         1.9891154920        7.4703513828       10.3258628289
  H         2.0051749105        5.8735756183        9.8634935372
  H         1.4235081913        6.3160365608       11.5287180097
  H         7.0098069059        4.6433714146       31.2732869072
  H         5.3114717773        4.6096463010       31.8975119648
  H         6.5699785684        5.6597992286       32.6742995128
  H       -10.2326934169        9.5056074663       27.0263964315
  H        -8.9585485349       10.7389769176       27.1571587246
  H        -8.5316651503        9.0709758809       27.5084067088
  C        -3.8314042194       14.0942208239       38.5437096300
  N        -3.7159348520       15.4414559389       38.7481230270
  O        -2.7346977367       17.3115578698       37.8048565604
  S        -4.7078432602       13.0630925434       39.7533935851
  C        -4.1755246443       16.1407692982       39.9539513288
  H        -4.4980730093       17.1112474950       39.5586581208
  H        -5.1894952087       15.8037923951       40.2627805639
  C        -3.0908707326       16.1273384773       41.0789560887
  H        -2.6200656534       15.1161439558       41.2328811879
  H        -2.2393542771       16.7400911712       40.8004435922
  H        -3.4185360231       16.4193817905       42.0606627791
