352
i=
  H         2.6392610019        3.3524072412       12.3436072251
  C         3.2715750838        2.5762628984       12.7228375469
  H         2.5829398399        1.7642525726       12.6655197364
  C         4.4015641940        2.2218937176       11.7658763956
  C         3.7810033582        2.9112590600       14.1400614845
  C         3.9798895861        1.8800243696       10.2899124620
  H         4.9711838522        1.4478851726       12.1588505626
  H         5.0733970249        3.0852215704       11.6874360154
  H         4.7315323028        3.5046127905       14.0378645279
  H         3.9017508958        2.0860604022       14.8644528054
  H         2.9913937612        3.6194786379       14.5438556610
  C         4.9366345575        1.0189938302        9.4701488158
  H         3.0402243590        1.3539548552       10.3111212199
  H         3.7514376583        2.7812852493        9.7243120104
  C         5.6041942741        1.7022603772        8.2606460571
  H         4.3502490872        0.2385863933        9.0554555717
  H         5.6512167173        0.5623478863       10.1465944434
  C         6.7402907248        2.6523290257        8.4734327121
  H         4.8778642406        2.2911600873        7.7660732686
  H         5.9051705155        0.8947684659        7.5707081888
  C         7.9317424804        1.9137915312        9.0087523867
  H         6.9788501621        3.1934071972        7.5166013139
  H         6.4663143157        3.2689012521        9.2755158392
  C         9.1641856211        2.8186099320        9.2288531256
  H         8.1703673487        1.1918942973        8.2869938227
  H         7.6137603232        1.5058881690        9.9785526259
  C         8.8274656874        4.1542199624        9.8447825524
  C         9.6921104963        3.5198266113        7.9649647536
  C        10.2717281182        2.1333655769       10.0234387737
  C         9.1146042887        5.2664637339        9.0375179320
  C         8.2158128464        4.5275657103       11.0418124342
  C         9.6168136254        4.8673643374        7.8539644708
  C        10.2405826016        2.8876758875        6.8464389419
  H         9.9424084416        1.9422505254       11.0455583022
  H        10.5113837110        1.2126840739        9.6135830815
  C        11.5566757634        3.0437819465       10.2269473846
  S         8.6765386855        6.7623877127        9.7452156000
  C         8.1129090694        5.9121309466       11.1781356569
  H         7.9170710690        3.7168366946       11.7347885825
  C        10.0691512526        5.5385992373        6.7683830633
  H        10.2639105094        1.8669517489        6.9189262996
  C        10.6767180337        3.5126207511        5.6928447236
  H        11.2011724991        4.0015618588       10.5743561161
  H        11.9485520276        3.2778491224        9.2864461622
  C        12.6339336093        2.6889709998       11.2363487216
  C         7.7205861928        6.6566791226       12.4433508278
  C        10.5341384338        4.8973109132        5.6131472419
  H        10.0100264510        6.6829198460        6.7732963546
  C        11.0593616421        3.1972827820        4.4159485884
  H        13.5971539258        3.2419786964       11.1379505042
  H        12.7486081499        1.6124964523       11.1553452383
  C        12.1103007563        2.8684724811       12.6367461058
  C         7.6770841822        8.0914964111       12.6316420466
  C         7.3281879506        5.8507767118       13.6431649085
  C        10.9695110149        5.5944756130        4.3565901873
  C        11.2357193072        4.2813063419        3.5761446726
  S        11.3068211520        1.6495694997        3.6270555806
  H        12.2621155421        3.9848405980       12.7981304369
  H        11.0916721025        2.6290640705       12.6839176220
  C        12.8758751428        2.2097091238       13.7771751465
  N         8.0651697389        9.0326484151       11.6787037863
  C         7.5027983366        8.6851594904       13.8713511478
  C         7.1142280281        6.4581330951       14.8747011592
  H         7.2503376758        4.7464521742       13.5939444743
  C        12.2348110765        6.5300906024        4.4519548522
  C         9.7338719900        6.3236222380        3.8362705223
  C        11.6429923783        3.8343423061        2.2936055110
  C        11.6667654163        2.4599441290        2.1500134622
  H        13.8779397823        2.4682514363       13.7466864866
  H        12.7548881190        1.1286085534       13.7683909378
  C        12.3241138315        2.6665848750       15.1123958776
  S         8.1484886880       10.5080809789       12.3151678944
  N         7.5483630426       10.0845413768       13.7762897787
  C         7.1953620749        7.9635685816       15.0253238997
  H         7.2237800596        5.7614915169       15.7091256908
  H        11.9511802375        7.4214853238        5.0983656777
  H        12.4761136912        6.7943282919        3.3995828594
  C        13.3824915393        5.8807270804        5.1429985992
  H         9.3929887043        7.0604616335        4.5408061799
  H         9.9599691208        6.9806904042        3.0345035292
  C         8.5550906062        5.4410996967        3.3188753839
  H        11.8776051403        4.5812025382        1.5910902276
  C        11.9026852785        1.7325813234        0.8493853666
  H        12.1862210639        3.7728940000       15.0234990066
  H        11.3681525371        2.2019194725       15.2577279062
  C        13.2276640982        2.2122395612       16.2209313961
  C         6.9357427495        8.6515374104       16.2097924423
  H        13.2264076543        5.8351953609        6.1948104137
  H        13.5828899845        4.8811785935        4.7381981169
  C        14.7047562579        6.5846105967        4.9333482827
  H         8.1872940565        4.7900572060        4.1168282574
  H         9.0067569879        4.7046879096        2.6619708227
  C         7.5782008501        6.4820676611        2.5358970214
  C        11.9499563747        0.3011188518        0.6581461833
  C        12.1987116042        2.5185711747       -0.3591286102
  H        14.1767667137        2.6657083772       16.1902245650
  H        13.2381478827        1.1644442651       16.0015007905
  C        12.6970370015        2.6119593683       17.6128964341
  H         7.1714125047        9.6679006006       15.9835951091
  C         6.6129204741        8.1986572350       17.4569798872
  H        14.7432811957        7.4930259503        5.5242816058
  H        14.7411888927        6.9063992228        3.9207630763
  C        15.9996425601        5.7392687151        5.1389212512
  H         7.2559112709        7.2594586757        3.2158013375
  H         8.0362724383        6.9545453023        1.7092161062
  C         6.3015844209        5.8471016571        2.0156521728
  N        11.6680646292       -0.6712100684        1.6926597758
  C        12.2042984741       -0.2792715007       -0.5660212916
  C        12.4481794025        1.8846671914       -1.5469144636
  H        12.2189332267        3.5713681938       -0.2632959784
  H        13.3133097709        2.2374131741       18.4424789799
  H        11.6988868728        2.2931698169       17.8399985059
  H        12.7209144340        3.6736119204       17.7658050189
  S         6.3192561866        6.5208323842       18.0062483239
  C         6.4765813190        9.2633250535       18.4743660196
  H        16.1001477943        5.1153210474        4.3123215074
  H        16.8478117632        6.3952132301        5.1614816289
  C        16.0678386676        4.7303832543        6.3462449441
  H         5.9622498280        5.0849910847        2.7054637031
  H         6.5034822886        5.3363049469        1.0702605177
  C         5.1583199237        6.8017829373        1.9851519712
  S        11.7638687679       -2.1835390650        0.9975151792
  N        12.2978496403       -1.6852099630       -0.4980388639
  C        12.3786138825        0.4464538393       -1.7393261628
  H        12.5801339953        2.4835329442       -2.4543944785
  C         6.0019433489        7.2776248196       19.6228760769
  N         6.1973541657        8.6155593582       19.6290207288
  O         6.4390929319       10.4685600345       18.2360413089
  H        15.7122289006        5.3660951504        7.1678973036
  H        15.3338794973        3.9140151849        6.3839704231
  C        17.5057923332        4.1983713923        6.6629638618
  H         4.3943844728        6.0706344869        1.9541785257
  H         5.1362279679        7.3933868002        2.9182656543
  C         5.1492678979        7.8158679649        0.8171576143
  C        12.6772859087       -0.2173869197       -2.9432961380
  S         5.6166213866        6.3701503701       21.1084004680
  C         5.9113510792        9.3598440137       20.8920508757
  H        17.3580443331        3.4139940867        7.3649811251
  H        18.0758511398        3.9621933998        5.7766473508
  C        18.3579995306        5.2579203452        7.4113282843
  H         5.2891766575        7.1858478466       -0.0649364316
  H         6.0782383229        8.4141282720        0.7515336796
  C         3.9068208112        8.6551556951        0.6010445271
  H        12.5306848109       -1.2974937148       -2.8601312303
  C        13.1828865313        0.2245661153       -4.1640385240
  H         5.2915647059        8.8531708093       21.6060975823
  H         5.3130934925       10.2230670998       20.5543081257
  C         7.1143908716       10.0323910331       21.5839296684
  H        18.5334471606        4.8639573309        8.4523394048
  H        17.8024370833        6.2106006941        7.5658581923
  C        19.5951611200        5.5464708465        6.6359339840
  H         3.5531919893        8.4409148956       -0.3635794918
  H         3.1471070209        8.2747454468        1.3343637413
  C         4.3407124867       10.1489854802        0.6754715565
  S        13.7168996066        1.8072610971       -4.6060544989
  C        13.2386083952       -0.7587628769       -5.2536760592
  H         7.5025747458        9.4214968906       22.3688738429
  H         6.8500555408       10.9138339992       22.1275485315
  H         7.9513344255       10.1432874711       20.8558341068
  H        19.2583649961        6.0031765873        5.6742536642
  H        20.1801667688        6.2904035105        7.2485394995
  H        20.2023428301        4.6282678461        6.4179413004
  H         4.8867325507       10.5360282885       -0.1495090962
  H         3.5572132752       10.9405848163        0.9308171369
  H         5.0045823592       10.2890753472        1.5671197344
  C        14.2411835636        1.0353732604       -6.1543859906
  N        13.8956292070       -0.2530887651       -6.2632635691
  O        12.7486855434       -1.8802448740       -5.2308046023
  S        14.8528332443        1.8351490679       -7.6427839315
  C        13.9451481028       -1.1251001429       -7.4692957019
  H        14.1644523718       -2.1641049841       -7.0760330357
  H        14.7146376354       -0.9007459054       -8.1270180846
  C        12.6613529991       -1.0829562475       -8.3186683704
  H        11.8528300271       -1.6677701799       -8.0504773424
  H        12.8583226587       -1.0562602339       -9.3750673307
  H        12.4293804446       -0.0658750813       -8.0347906072
  H        -1.7146655310       14.9343578751       14.2534643038
  C        -2.1499900811       14.6088512650       15.2322804702
  H        -2.9355779710       15.3503975441       15.4388750963
  C        -1.1639215164       14.5187150603       16.4360095166
  C        -2.9049516103       13.3651189443       15.0454065421
  C        -1.8426724650       14.2835388740       17.8274465226
  H        -0.5146033881       13.6398852977       16.1910487889
  H        -0.5655051866       15.3665123478       16.4380764586
  H        -3.1936261883       13.3104098684       14.0049915768
  H        -2.3410194501       12.4224859694       15.2086758895
  H        -3.8614914157       13.4264949382       15.5366038923
  C        -0.8336876887       14.0851926175       18.9899620837
  H        -2.5454020961       13.3856890465       17.7023448103
  H        -2.5496613539       15.0425010670       18.0164731986
  C        -1.5429783738       13.8986874517       20.3681058551
  H        -0.2777623860       13.0748589270       18.8355302530
  H        -0.1798279501       14.8645875387       19.0030425225
  C        -0.7079311799       13.2373131931       21.5274172701
  H        -2.3495653587       13.1832714067       20.1076110215
  H        -2.0534119406       14.8251299763       20.6331635048
  C         0.3538350217       14.0445732001       22.2300443556
  H        -1.3386363669       12.8284402472       22.3349446263
  H        -0.2501511004       12.3748565028       21.1024629527
  C         1.4615033679       13.2656088898       23.0500007128
  H         0.8718862051       14.5636078318       21.4309925106
  H        -0.0393222155       14.9814858600       22.6845288268
  C         1.8558828249       11.8722361901       22.4308209071
  C         0.9719001090       12.5459173466       24.2546047008
  C         2.7658945096       14.1059765154       23.2484221586
  C         1.5815454427       10.7759870248       23.1592238492
  C         2.2584394847       11.4895744183       21.1204962421
  C         1.0705298805       11.1755538537       24.3970265112
  C         0.4466453028       13.1294624020       25.3276152817
  H         2.9708414933       14.8210699038       22.4669011119
  H         2.7783253809       14.8063019622       24.0814558320
  C         4.1193694084       13.3278106819       23.5148939923
  S         1.9904003918        9.3156288697       22.4457727749
  C         2.3720473951       10.1527531919       20.9328240050
  H         2.4952439468       12.2300094286       20.4041850680
  C         0.5628324923       10.5326270027       25.4831438115
  H         0.3204534152       14.1611994582       25.3330022215
  C         0.0921191665       12.4619649097       26.4985311719
  H         4.3402252811       12.6023448750       22.6966747002
  H         3.9490608397       12.6792134265       24.3772228420
  C         5.3784489064       14.2548014674       23.8164799600
  C         2.6857316942        9.6024985379       19.5702643439
  C         0.1503558572       11.1432530184       26.6239219480
  H         0.5038837807        9.4660754556       25.4266443409
  C        -0.4254680107       12.8943330003       27.7308124501
  H         6.0320161271       13.7886403959       24.4725975578
  H         5.0272979328       15.0364078262       24.3951900866
  C         6.0595267757       14.9376741421       22.6781444573
  C         2.6827077542        8.2418942609       19.3114174594
  C         2.9273083126       10.4724664428       18.4126824867
  C        -0.2962139321       10.5087564423       27.8877035417
  C        -0.6976475664       11.8119921750       28.5684319256
  S        -0.6622774694       14.4367811174       28.3675066560
  H         6.7667861724       15.6773969071       23.1384048567
  H         5.4972393955       15.6538147073       22.1462353668
  C         6.8780212261       13.9841295800       21.8418157821
  N         2.3957664054        7.3071252466       20.2693063020
  C         2.9410702117        7.6649208175       18.1024729667
  C         3.3426292580        9.8701680842       17.2291768157
  H         3.2598905430       11.5136454550       18.5233837931
  C         0.8357668364        9.6756732319       28.5361740917
  C        -1.6014103091        9.7262033895       27.6540570512
  C        -1.1142712966       12.3059462278       29.8228834792
  C        -1.1536622501       13.6474482026       29.9034553873
  H         7.9142135117       14.4014862071       21.8238598514
  H         7.0572319491       13.0585586153       22.4785240017
  C         6.3914514997       13.5651618882       20.4606679532
  S         2.4600800530        5.8347137679       19.6364952044
  N         2.9180756793        6.3022968510       18.1273777036
  C         3.1792398934        8.4332680668       16.9887890157
  H         3.7901972163       10.4356679844       16.4702518960
  H         1.1455603614        8.9209102111       27.8530856496
  H         0.5208663690        9.1249366056       29.4056607418
  C         1.9489452734       10.5293819669       29.0448970752
  H        -1.3635978150        8.9278881612       26.9051702977
  H        -1.8410846987        9.2669958751       28.5820556581
  C        -2.7739167812       10.5440979846       27.1669104030
  H        -1.3548955210       11.6474633332       30.5631137173
  C        -1.4150077557       14.4138133505       31.1456739533
  H         5.3533604991       13.7332897092       20.3923141561
  H         6.6045465527       12.5050359574       20.2849287922
  C         7.0317104460       14.1915955857       19.2685077753
  C         3.4334720517        7.7408912549       15.7106010463
  H         2.1628945002       11.3071792483       28.3277213101
  H         1.7550326068       11.1003094159       29.9252628702
  C         3.1950381112        9.6637666270       29.2926808017
  H        -2.4908583384       10.8757155960       26.1472818545
  H        -2.9672703786       11.4323517133       27.8350546109
  C        -4.0224495997        9.6432473433       27.0961860471
  C        -1.3721870009       15.8245909295       31.2166112225
  C        -1.7665947891       13.6480726074       32.3342389709
  H         6.8064287493       15.2701010892       19.1117099986
  H         8.1043603961       14.0279900935       19.3123546293
  C         6.4235185103       13.7203254703       17.9789341476
  H         2.9925541040        6.8396798375       15.7076481639
  C         3.5953340088        8.1380664881       14.4093424765
  H         3.5306587590        9.0635772039       28.4224498832
  H         3.0484421608        9.0444541395       30.1538031091
  C         4.3274295554       10.5783622635       29.8460803304
  H        -3.9129955166        8.7434131890       26.4099899744
  H        -4.2395019229        9.1897786754       28.0931864803
  C        -5.2749363266       10.3992077844       26.5711281499
  N        -1.0727034553       16.7106482264       30.2039410964
  C        -1.7158537334       16.4335060100       32.3809686524
  C        -2.0263305542       14.2977664083       33.4978399896
  H        -1.7948840990       12.5631960405       32.3531272426
  H         7.0853953699       13.1364442670       17.3592136048
  H         5.5776701452       13.0426422909       18.1428657118
  H         5.9427542786       14.4853253822       17.3834752654
  S         3.9262794514        9.7806699608       13.8815281409
  C         3.6287155748        7.1121576808       13.3779486558
  H         4.4508195617       11.5226487758       29.1829689548
  H         3.9784098949       10.9802174510       30.8405590533
  C         5.7486846611        9.9346798697       29.9610551899
  H        -5.2516953406       11.3912146917       27.0702340699
  H        -6.1018568512        9.8334563482       26.9811022587
  C        -5.3987094238       10.6202953851       24.9731874914
  S        -1.3087969865       18.2579829880       30.7405136928
  N        -1.6591939150       17.8321083479       32.2614441370
  C        -2.1668708759       15.7153126528       33.4863857383
  H        -2.2171671408       13.7035814495       34.4183655743
  C         4.0924533762        9.0674628753       12.3052663181
  N         3.9575847560        7.7363984943       12.2095310840
  O         3.5811511378        5.9441426278       13.5931014220
  H         6.3541428837       10.4194107139       30.6509215606
  H         6.2830418117       10.0531076510       29.0673333248
  C         5.6740652379        8.4414770587       30.2353469123
  H        -4.6023154707       11.2865043299       24.6862576934
  H        -5.3229171633        9.7493963928       24.3814958275
  C        -6.6562946590       11.4721605227       24.6168306766
  C        -2.5144257475       16.4938698353       34.6923574577
  S         4.8446801838        9.8239337712       10.9389252056
  C         4.0720000274        6.8841340514       11.0025164138
  H         4.8966566303        8.1826107510       30.9885352032
  H         5.6538618291        7.9003596948       29.2843031680
  C         6.9697377375        7.9066255394       30.8459600936
  H        -6.5404295699       11.9424190294       23.6294666820
  H        -6.9129383356       12.2422356849       25.3962824595
  C        -7.8735206667       10.5379696173       24.4316604164
  H        -2.5376089906       17.6108002536       34.5786369632
  C        -3.0198500732       16.1383232759       35.9580985624
  H         4.7263698966        7.3087530482       10.1643740744
  H         4.5658892517        5.9850228490       11.2245440674
  C         2.6578650914        6.5575279417       10.4858692112
  H         7.2016605125        8.2607869993       31.8292268929
  H         7.7360346926        8.2971342048       30.1683929383
  C         6.8287909872        6.4108618407       30.8269423316
  H        -8.3235907464       10.6408855937       23.4124320555
  H        -7.5777852962        9.4785795320       24.3957466809
  C        -8.9714086098       10.8849781222       25.5318959009
  S        -3.5744775640       14.5962000030       36.4191352376
  C        -3.0417226091       17.1657887174       36.9716623328
  H         1.8887163347        6.2689212256       11.2718355078
  H         2.2410532604        7.2999392348        9.7491914775
  H         2.7404215113        5.6261770902        9.8412293847
  H         7.7322628492        5.9069553094       30.3661342514
  H         6.0741741636        5.9918528085       30.0834684689
  H         6.7242738506        6.0089007345       31.8612927190
  H        -9.0106970672       11.9631153609       25.8209168200
  H        -8.6142382975       10.4772642485       26.4336493633
  H        -9.9586155469       10.4666144542       25.2617267414
  C        -3.8327343552       15.3187148780       38.0930945176
  N        -3.5907566383       16.6648253343       38.1041757833
  O        -2.7039388658       18.3333468057       36.7514072479
  S        -4.5559218932       14.6276429653       39.6204551365
  C        -3.6263907852       17.4734247847       39.3040249145
  H        -3.9174332094       18.5333336693       39.0567842269
  H        -4.4436457904       17.2273826304       40.0313082911
  C        -2.2087017195       17.4272082173       40.0560820893
  H        -2.2836809451       17.8906255340       41.0691499933
  H        -1.9137254782       16.3930953180       40.1677338563
  H        -1.3762557553       17.8391956085       39.3280423590
