352
i=
  H         3.0584514207        3.9258324422       12.2308808862
  C         3.1760301211        2.8472951090       12.5410784599
  H         2.3408247261        2.3542567586       12.0119173007
  C         4.5543521467        2.4567983130       12.0193170876
  C         3.0736378181        2.4741603482       13.9664583024
  C         4.8829051112        2.9471341825       10.6780925865
  H         4.6778940716        1.3873925950       12.0286824940
  H         5.2003495425        2.9646069045       12.7422677487
  H         2.7903483471        1.4515400517       14.0834751045
  H         2.2629124442        3.0572208627       14.4197202525
  H         4.0462470223        2.6618839981       14.4480233082
  C         4.9942835000        1.8171806682        9.6883029583
  H         4.0342051083        3.5615226924       10.2931765386
  H         5.8045844842        3.5394844806       10.6420374511
  C         5.5376985125        2.1628185263        8.2819670068
  H         3.9458673176        1.6157097513        9.5433092364
  H         5.5371044812        0.8992105606       10.0162066666
  C         6.9328660723        2.8580052729        8.3177914102
  H         4.7467348508        2.7061148162        7.7202622666
  H         5.7245216748        1.3284627372        7.6240249245
  C         8.0135459413        1.9572097859        8.9544373238
  H         7.2498008006        3.0679492632        7.2912759858
  H         6.8021029011        3.7886431316        8.9319976183
  C         9.3207504778        2.7337054460        9.2458441729
  H         8.3213188952        1.1587448621        8.2616750930
  H         7.6676408530        1.5984175616        9.9342935678
  C         9.0980342761        4.0699588178        9.9696505322
  C         9.7898291477        3.3954238490        7.9743221958
  C        10.3997033076        1.7844849959        9.8358923693
  C         9.4216530940        5.1327106616        9.1485620581
  C         8.6486450151        4.5228639834       11.2369765630
  C         9.8315605821        4.7223384266        7.9014022076
  C        10.1817251651        2.7365762372        6.8008299826
  H         9.9275862574        1.2788345807       10.6748795845
  H        10.8130740084        1.0320658622        9.1776104861
  C        11.6940676541        2.4973670811       10.3861668179
  S         9.0811635964        6.6695009664        9.8959274387
  C         8.6055272704        5.8173032239       11.3572389483
  H         8.1899362202        3.7570329675       11.9275040841
  C        10.2056216338        5.3420903592        6.7377252820
  H        10.2446241416        1.7333664540        6.8396798077
  C        10.5215683001        3.3503247577        5.6469108837
  H        11.5011605325        3.4034828159       11.0152426888
  H        12.2171720780        2.8740337057        9.5880727447
  C        12.6122208631        1.6873422255       11.2492644496
  C         8.0584234547        6.4800983426       12.6186705994
  C        10.5395268527        4.6865250707        5.5507049893
  H        10.1281172511        6.4412031345        6.8126765200
  C        10.9078604193        2.9238543965        4.3960620626
  H        13.4076534146        2.4684899487       11.4370723889
  H        13.0730024300        0.8685799121       10.7322671735
  C        12.0472981519        1.2479306615       12.5925008395
  C         7.9288531913        7.8939114832       12.7831655263
  C         7.5221006934        5.6471118322       13.7413918712
  C        11.0155549697        5.3438859751        4.3237051670
  C        11.3098009323        3.9598969847        3.6324762251
  S        11.3719742071        1.3714790755        3.7818035859
  H        11.0810007401        0.9139510825       12.4520837673
  H        12.6197776888        0.4236288171       13.0867857259
  C        12.0305598008        2.3391411127       13.6506706591
  N         8.1210798264        8.8719710175       11.7991884127
  C         7.5558723528        8.4100607625       13.9660418019
  C         7.1209910249        6.2474358101       14.9284705009
  H         7.2978640940        4.6064551112       13.6225572306
  C        12.3494997543        6.1370280987        4.4847850670
  C         9.9512939602        6.0865870065        3.6344783262
  C        11.7532779799        3.4929007350        2.3515087072
  C        11.7846488382        2.1270070887        2.2896145781
  H        11.2584035499        2.9960440260       13.4263091776
  H        12.9352472829        2.9838644539       13.6310011086
  C        11.9329430717        1.7621336837       15.0615151825
  S         7.8968052590       10.3055285826       12.4774545388
  N         7.3842099931        9.7747026718       13.8965459827
  C         7.1942380892        7.6649594380       15.1142965994
  H         6.7051587762        5.6368899489       15.6858184839
  H        12.0303668320        7.0120432854        5.0995255454
  H        12.7364674892        6.5292889916        3.6018088718
  C        13.3957772537        5.3484335738        5.3014511775
  H         9.5436147436        6.8314279825        4.2545986103
  H        10.4416653494        6.6840795079        2.8301108059
  C         8.9109999319        5.3078014426        2.9168800874
  H        12.0895219143        4.2059736155        1.5634404241
  C        12.1331019258        1.3457113891        1.0409927051
  H        10.9679770474        1.7893754649       15.4588314659
  H        12.0876190003        0.6625532896       15.1395306947
  C        12.7867185639        2.4759977507       16.1222429138
  C         6.9915161300        8.3509057909       16.3486785656
  H        13.1325918731        5.1819866760        6.2966287298
  H        13.5786370561        4.4622894062        4.7929260143
  C        14.7946470775        6.0958004384        5.3465778754
  H         8.4614196474        4.6214051349        3.6173652642
  H         9.4483959680        4.8311073119        2.0925318807
  C         7.9837396323        6.2086301500        2.2127135209
  C        12.2613988291       -0.0855103030        0.9324706080
  C        12.1007280972        2.0547434056       -0.2720845206
  H        12.4684422309        3.4647684891       16.3452348392
  H        13.8930753403        2.4245572616       15.8748842534
  C        12.8365029405        1.7619470110       17.5091554854
  H         7.2429241054        9.3838434577       16.2495474735
  C         6.7251789982        7.9047597008       17.6387938242
  H        14.7703202971        6.9208853854        6.0426501187
  H        15.0214490342        6.5606148629        4.3966363697
  C        15.7674247900        5.1302526585        5.8495899113
  H         7.5824082418        7.0110207075        2.8916794516
  H         8.5576153431        6.5910000473        1.3775869459
  C         6.7906131671        5.5102763855        1.4639538985
  N        12.1368700267       -1.0438779406        1.9622984995
  C        12.4089423651       -0.6969982268       -0.2929813277
  C        12.2933551420        1.3795143923       -1.4359061217
  H        11.8557840631        3.1519294644       -0.3590425265
  H        13.1083035453        2.4765414060       18.2518815340
  H        13.5798287035        0.9682521207       17.5462837564
  H        11.9382010765        1.2946694007       17.9070229550
  S         6.4575079693        6.2790636694       18.2372144175
  C         6.5839112809        9.0158074375       18.6746483842
  H        15.2819388241        4.3918368164        6.5623746337
  H        16.1751897806        4.6854182333        4.9046004945
  C        16.8996868350        5.9366718106        6.5278998689
  H         6.8193209853        4.4046599041        1.7724501297
  H         6.9793478494        5.4298756187        0.4325386310
  C         5.4559717253        6.2738738684        1.6375801902
  S        12.1000820462       -2.5654546972        1.3560825504
  N        12.3382349050       -2.0992123101       -0.2357417768
  C        12.5823820729       -0.0506010170       -1.4866458223
  H        12.1679728518        1.9077971508       -2.3659931144
  C         6.1372141446        7.0807966768       19.7542057387
  N         6.1531111175        8.3958817126       19.8395945204
  O         6.5974363660       10.2547939963       18.4107897298
  H        17.2847437561        6.6658822781        5.8135854911
  H        16.4132516213        6.4238943809        7.3520328335
  C        18.0084812278        5.0934727703        7.0753624073
  H         4.6935864396        5.4678080189        1.4460659802
  H         5.3634244001        6.6537613958        2.6154665841
  C         5.3336005928        7.5299020807        0.8080482114
  C        12.8209060739       -0.8595551532       -2.6474061143
  S         5.5970186168        6.1030937498       21.1346773991
  C         5.8311388312        9.1889315908       21.0303283855
  H        17.8876609324        4.8020151733        8.1124955598
  H        17.9726843505        4.1021615463        6.5305440422
  C        19.3684275877        5.6853483023        6.8985254976
  H         5.1431588006        7.2321170790       -0.1664149764
  H         6.3040188866        7.9960086104        0.8061132612
  C         4.1868019325        8.4476677651        1.2750044513
  H        12.4622610352       -1.8990482100       -2.6102599965
  C        13.3271317940       -0.6021038300       -3.9070459424
  H         4.9976725957        8.7569374863       21.4797801679
  H         5.6235327738       10.2639999774       20.8350899399
  C         7.0013755643        9.2243948567       22.0125780801
  H        19.8995052345        5.4442368438        7.8474284681
  H        19.2864709977        6.7554081000        6.7265834946
  C        19.9542386426        5.2282069399        5.5345078816
  H         4.1402947036        9.1992346474        0.4760475900
  H         3.2189357930        7.9479833143        1.4157683536
  C         4.3945361741        9.1070950281        2.6068693129
  S        14.0099268618        0.8906990284       -4.4677503434
  C        13.4495250184       -1.7134679055       -4.8772810434
  H         8.0278723324        9.3179156802       21.5879151768
  H         6.9134805011        8.4481279879       22.7293390092
  H         6.7877040603       10.1330434173       22.5835586307
  H        19.3868246776        5.5151293885        4.6855786327
  H        20.9051065407        5.7349633314        5.4684081131
  H        20.1179651262        4.1208767118        5.4931466737
  H         4.0683649031       10.1288161277        2.5747465996
  H         3.7252671270        8.5089713228        3.3085015387
  H         5.4096714588        9.2263154981        2.9745563763
  C        14.1790011817        0.1511181776       -6.0050182300
  N        14.0841358067       -1.2613937476       -6.0150438764
  O        13.0287122285       -2.8344354603       -4.6020876623
  S        14.8018491964        1.0431636215       -7.4382092866
  C        14.1404962768       -2.1236783758       -7.1771926914
  H        14.5476861657       -3.1202570986       -6.9470064930
  H        14.8747267239       -1.7026858870       -7.8207136085
  C        12.7052141344       -2.1582495820       -7.8862857044
  H        12.1466373619       -2.9470844683       -7.4135724391
  H        12.6985133699       -2.4028228721       -8.9277051395
  H        12.2752019572       -1.1269122077       -7.7926518499
  H        -3.8551811544       14.4904934256       16.3862549337
  C        -3.1928312191       13.6618555787       16.3615894255
  H        -3.7920868254       12.7615413119       16.2844282284
  C        -2.2802432298       13.5947268046       17.5141702321
  C        -2.3537018870       13.7031858942       15.0638662371
  C        -2.8675344729       13.5973153139       18.9481687446
  H        -1.7758049253       12.6845026697       17.3393661987
  H        -1.4317533983       14.2938958029       17.4122525384
  H        -1.3394762920       13.4242052327       15.1487126099
  H        -2.8074283690       13.1202691857       14.2753169154
  H        -2.4579332827       14.6788450128       14.6980778609
  C        -1.7789331230       13.3337891154       19.9869099090
  H        -3.6203092088       12.8508367779       18.9304095707
  H        -3.2404055555       14.5983296613       19.1477541460
  C        -2.2206674002       13.3427792294       21.5054043749
  H        -1.4309983223       12.2667888282       19.8144485911
  H        -0.8491480401       13.7831669360       19.8739772921
  C        -1.1769460838       12.7113589104       22.3962288484
  H        -3.1943269277       12.7794502891       21.5544207313
  H        -2.4840581328       14.4004300930       21.8182616619
  C         0.0239101115       13.6237747311       22.6050266988
  H        -1.6771533274       12.5133533915       23.3398833006
  H        -0.8762578365       11.7376425023       22.0014073709
  C         1.1418725599       12.9520801784       23.3927779574
  H         0.4329914011       13.8889580688       21.6533211276
  H        -0.1630786386       14.4875855184       23.2494232925
  C         1.4821989890       11.6337468682       22.7120590474
  C         0.7785074594       12.2269689021       24.6295922543
  C         2.3771125096       13.8048552222       23.5542871036
  C         1.4410167401       10.5209657315       23.5159851638
  C         1.9855577523       11.3260043394       21.4567097588
  C         0.9162531634       10.9042025675       24.7753400473
  C         0.3570935889       12.8333154869       25.7824826625
  H         2.6607191106       13.9349222647       22.4943109743
  H         2.0645249081       14.7972905250       23.9171576498
  C         3.5566020346       13.1076143276       24.2469667513
  S         1.9632759488        9.0722042629       22.7873702811
  C         2.2579773043        9.9683039177       21.3368638464
  H         2.1261966012       12.0803656191       20.7310804387
  C         0.6662843295       10.2695271386       25.9649607165
  H         0.1338856986       13.8929260288       25.6914463637
  C         0.0390334132       12.2324607798       26.9454920162
  H         4.0231338146       12.2588695574       23.6575260020
  H         3.1088184308       12.7198701527       25.1793024719
  C         4.7128627556       14.0136610697       24.5801356698
  C         2.7142306694        9.2272264729       20.1593984268
  C         0.1310116166       10.9132948804       27.1042135390
  H         0.7570133541        9.2111408351       25.9563674478
  C        -0.3970711948       12.6419482595       28.1775141202
  H         5.4678187334       13.4940304686       25.1827867911
  H         4.2612240773       14.7509234109       25.1845108530
  C         5.4891614569       14.6338060028       23.3102092123
  C         2.7071575697        7.8163875136       19.9284749935
  C         3.3079233259       10.0129991222       19.0524455886
  C        -0.2823036491       10.2472179133       28.3525042111
  C        -0.6069179866       11.5463058125       29.0115840088
  S        -0.6167094984       14.1880726400       28.9420143832
  H         6.1485287671       15.4681078983       23.5966600193
  H         4.8866730057       15.0034241144       22.4737790720
  C         6.5541779422       13.5786721276       22.6839982117
  N         2.3530881134        6.8012951032       20.8520730214
  C         3.0707878481        7.2592295355       18.7015129880
  C         3.5442521094        9.5082478526       17.8103388874
  H         3.4296456208       11.0524803835       19.2281876370
  C         0.9312349778        9.5330547703       29.0254544551
  C        -1.4428631355        9.3388672847       28.0641557399
  C        -0.8299538541       12.0311935447       30.3368765339
  C        -1.0484711681       13.4030606521       30.3653855726
  H         7.5258448987       13.9545752392       22.9998996781
  H         6.3361354656       12.5742917963       23.0944109647
  C         6.5148879938       13.5540749549       21.1284670900
  S         2.3547438481        5.3519987921       20.0926227162
  N         2.8195656884        5.8806188657       18.6047319938
  C         3.4729652936        8.0326526449       17.5591739206
  H         3.7862620542       10.2183366942       17.0434005949
  H         1.3344453200        8.7387743349       28.4388642186
  H         0.6139694907        9.1379888450       29.9554320201
  C         2.0501509638       10.4098043105       29.4983010435
  H        -1.1358978644        8.5425911345       27.3988202901
  H        -1.7177958114        8.8526403766       28.9758251825
  C        -2.7357290995       10.0129538888       27.6261731418
  H        -0.9510129040       11.2137043231       31.1048657176
  C        -1.3849599206       14.1101221743       31.6522960331
  H         6.1207688274       14.5364425925       20.7531784147
  H         5.7618583743       12.8227058735       20.8758922772
  C         7.7210756384       13.1205173468       20.3144909027
  C         3.7341171504        7.4078817431       16.3242977985
  H         2.5747260982       10.9538792188       28.7288282349
  H         1.6838164379       11.0991253486       30.2209536890
  C         3.1485050922        9.6411750792       30.2054433304
  H        -2.6618564900       10.6049030587       26.7484203669
  H        -3.0127944096       10.6133076775       28.5384231340
  C        -3.8064867199        8.9681338403       27.3532249713
  C        -1.3651908033       15.5057309944       31.8467905360
  C        -1.5647839417       13.2749963631       32.8805815465
  H         8.5673873409       13.7674278242       20.6873358929
  H         8.0543947341       12.0848983046       20.5934691734
  C         7.4275137437       13.2644473687       18.8195750232
  H         3.6874861002        6.3354553404       16.5087002950
  C         3.8376398025        7.8376447752       14.9749495038
  H         3.7821341827        9.1149904623       29.4658501871
  H         2.7132259223        8.7955228031       30.7546641219
  C         3.9517378450       10.5101558503       31.1020792059
  H        -3.4248380707        8.2815826602       26.5979129101
  H        -4.0869456776        8.3881957877       28.2930525282
  C        -5.1496337125        9.6075718081       27.0890742986
  N        -1.3223251262       16.4514369742       30.7925042731
  C        -1.7829545745       16.0789035203       33.0299263052
  C        -1.9060911378       13.8805061348       34.0586121151
  H        -1.3918642838       12.1933929920       32.8651674215
  H         8.1983678937       12.7001813178       18.2536671511
  H         6.4595309368       12.8377097482       18.5027321799
  H         7.4459593039       14.3178388748       18.3762094532
  S         3.9591486393        9.3989247246       14.3099133980
  C         3.8973564477        6.7879718189       14.0300636996
  H         3.7859626919       11.5647492255       30.9275994504
  H         3.6429204408       10.4268615286       32.1360450993
  C         5.4420094557       10.2503150194       30.8895639251
  H        -5.3414900703       10.3546726962       27.8881719702
  H        -5.9105695354        8.8282491014       27.1948193570
  C        -5.3001316414       10.1889933314       25.6902227437
  S        -1.3721911995       17.9466917529       31.3640480022
  N        -1.7179876037       17.4923716243       32.8803569485
  C        -2.0757231520       15.3538801786       34.1925505457
  H        -2.0172885970       13.2568665974       34.8624647335
  C         4.0546733731        8.6805433653       12.7324036776
  N         4.1588049951        7.3457097997       12.7732468668
  O         3.8618096993        5.5769226627       14.2931101406
  H         5.9802266080       11.0636117441       31.4373344154
  H         5.6051471339       10.4021417471       29.8375383704
  C         5.8684406095        8.8050200962       31.3363763265
  H        -4.5098944824       10.8329682897       25.5340295614
  H        -5.2937172464        9.4163716034       24.9360602749
  C        -6.5439853795       11.0848571374       25.7835728886
  C        -2.3487570146       16.0882372753       35.3594684462
  S         4.4857152765        9.6096929131       11.2426025597
  C         4.2276548707        6.5685075902       11.5913977411
  H         6.6598119710        8.9849431409       31.9990131835
  H         5.1161999890        8.3596737808       31.9553366377
  C         6.2276417608        7.7438538709       30.2708223131
  H        -6.1763998579       12.0721881288       25.4186626344
  H        -6.8517531436       11.2755739758       26.7565316620
  C        -7.7493716808       10.4194923730       25.0636275058
  H        -2.2648274408       17.1189535182       35.1346651087
  C        -2.7919198378       15.6657003512       36.6452189217
  H         4.9587972769        7.0992985510       10.9657942504
  H         4.4851297263        5.5272599088       11.8241299510
  C         2.8618703177        6.6265207037       10.8897564573
  H         6.7830047721        8.2630868552       29.5123965598
  H         5.3588669800        7.4725190982       29.6729494448
  C         6.8997027715        6.5355294777       30.8986127516
  H        -7.9261478840       10.8158077744       24.0512085848
  H        -7.5218602962        9.4102821552       24.8433848976
  C        -9.0669710947       10.3073427251       25.8572142302
  S        -3.2891668946       14.1319525593       37.1585429510
  C        -2.8920922633       16.6641329468       37.6944494894
  H         2.2159528233        5.8586808927       11.2144137989
  H         2.2052932428        7.5379940968       11.0561191995
  H         2.9677193865        6.4525767989        9.8155213753
  H         7.9819227026        6.5584764117       30.6852372375
  H         6.3861912422        5.5822043846       30.4724012670
  H         6.7573767377        6.4468067115       32.0119886062
  H        -9.8420695185        9.8770797069       25.3109319135
  H        -9.4444787003       11.2432897573       26.2498787712
  H        -8.9451204795        9.6199840075       26.7083688822
  C        -3.7881055239       14.8333375974       38.7028000609
  N        -3.4466586717       16.1488340443       38.8225789476
  O        -2.5201306334       17.8188837399       37.5345966666
  S        -4.4474794716       13.7834020428       40.0634560584
  C        -3.5884601391       16.8833625409       40.0168983262
  H        -3.9764662140       17.8671817767       39.8196603181
  H        -4.2603710584       16.3623760378       40.7474517816
  C        -2.2204151232       17.1175134305       40.6621577323
  H        -1.9108168868       18.0866164799       40.8246250755
  H        -2.2962927417       16.7410403331       41.5916140951
  H        -1.5192036247       16.5462257717       40.0999867358
