352
i=
  H         3.3589569986        3.6305237837       12.0943765033
  C         3.0158640485        2.6038495260       12.3064028152
  H         2.1028805344        2.8407554209       12.7508043030
  C         2.7855554125        1.8704681714       10.9877446898
  C         4.1152059587        1.9806182234       13.2393442616
  C         3.6990311773        2.2528590786        9.8694567439
  H         1.8685378939        2.2002578341       10.6269241479
  H         2.6225708376        0.8214847722       11.1066203655
  H         3.8415538044        1.5664832548       14.2900288006
  H         4.9065238512        2.6875391995       13.2521518506
  H         4.5639205771        1.1002184497       12.7063479474
  C         4.8081991144        1.2750832964        9.4490912648
  H         3.1423024593        2.5361837217        8.9706718907
  H         4.2510583554        3.1815131892       10.2231243759
  C         5.5379183379        1.7342267618        8.2455226146
  H         4.3726090385        0.3162070781        9.2411191403
  H         5.5483362462        1.2316385364       10.2561204783
  C         6.6724674148        2.6206319259        8.7128240169
  H         4.9544531463        2.2905500690        7.5845697101
  H         5.9841758130        0.9372287932        7.6153788687
  C         7.9615513237        1.8347970361        9.0644271377
  H         6.9286752654        3.1986233114        7.8097736006
  H         6.3867936087        3.1701547434        9.5687352452
  C         9.1378044228        2.7593737002        9.0671365228
  H         8.1000623164        0.8752694826        8.4849076918
  H         7.7865505566        1.3642395341       10.0376592675
  C         8.7157040362        4.0719319636        9.7805149048
  C         9.6006199928        3.5379163546        7.8602072843
  C        10.3750620403        2.2009421249        9.7710013631
  C         8.8874130454        5.1907142300        8.9821520200
  C         8.2153059175        4.4654056722       11.0579928115
  C         9.4428041552        4.8314323630        7.7279526367
  C         9.9707747138        2.9506522687        6.6572024688
  H         9.9024002938        1.7596604092       10.6223562358
  H        10.5886866118        1.3192519369        9.1710803509
  C        11.5484346853        3.1442133700       10.0321499636
  S         8.4652105469        6.6859734605        9.7167611406
  C         8.1084250897        5.8256300373       11.1604301807
  H         8.0272429729        3.6850036744       11.8202952019
  C         9.6821969859        5.4840516557        6.5639179521
  H         9.9695256706        1.8646460659        6.6463785887
  C        10.3891501318        3.5853957156        5.5248228478
  H        11.2131155364        4.1060776880       10.3905107305
  H        12.2351291599        3.2523940496        9.1960050752
  C        12.4290345151        2.4794937178       11.1411529025
  C         7.5562671814        6.4871695515       12.3975273404
  C        10.2202379659        4.9461108042        5.4269197830
  H         9.5578813903        6.5302893452        6.5375426882
  C        10.7609500079        3.2134180460        4.2629828744
  H        13.4379062543        2.9983721169       11.0413047757
  H        12.5329378366        1.3725240436       11.0070833445
  C        11.7646272669        2.6851051012       12.5359757651
  C         7.5938388861        7.8413150163       12.6645826796
  C         7.1685103658        5.5883755463       13.5548360341
  C        10.6273347362        5.6661092739        4.2104437711
  C        10.9419386580        4.2903428247        3.4568163051
  S        11.0393583687        1.6884086401        3.5456923235
  H        11.5345064787        3.7226865126       12.7943461184
  H        10.8376406836        2.1949503589       12.5976511441
  C        12.8646369991        2.3414041231       13.5553272203
  N         7.9516425719        8.8066312039       11.7621512924
  C         7.3207218180        8.3936433303       13.9370002660
  C         6.8094756778        6.1624890591       14.7575120396
  H         6.9604206582        4.5310423630       13.3363274385
  C        11.9849981467        6.3984428335        4.2443526052
  C         9.5618653392        6.4498501039        3.4696047652
  C        11.4120168410        3.8357254560        2.2492933441
  C        11.5441531288        2.4848320649        2.0740282435
  H        13.6074119116        3.1023871132       13.6249962219
  H        13.4065559991        1.3753239443       13.2330140946
  C        12.1971273298        2.2564784906       14.8628691961
  S         7.8869413080       10.2352295296       12.4844013735
  N         7.4885796987        9.7641254491       13.9587781201
  C         7.0266420886        7.6244522584       15.0425748830
  H         6.4124074556        5.5448620251       15.4779661070
  H        12.0367053083        7.1951134417        5.0591161905
  H        12.1978703509        6.7749296025        3.2799495022
  C        13.1413571777        5.5786104658        4.6195735452
  H         9.4842647281        7.4679090743        3.7827172958
  H        10.0008977149        6.6156224853        2.4784656489
  C         8.2170528002        5.7530820240        3.4441263599
  H        11.6831115449        4.5789498785        1.4908572505
  C        11.8907781352        1.6949688263        0.8902546751
  H        11.5852451192        3.1167631910       15.0676964642
  H        11.7266271090        1.2697409912       15.0389829556
  C        13.2524809220        2.3954076053       16.0033350128
  C         6.6981626827        8.3181295298       16.2523104574
  H        12.8413178404        5.1362368920        5.5496399030
  H        13.3673478394        4.6936418855        3.9858115168
  C        14.4833887036        6.3037026888        5.0239599704
  H         7.9184341907        5.3277893745        4.4459563492
  H         8.2324709073        4.9071984598        2.7910093234
  C         7.1779804879        6.6689242587        2.8904412171
  C        11.8975676761        0.2790346526        0.7226897903
  C        12.1436453514        2.4983557006       -0.2626438866
  H        13.9075594261        3.2916491367       15.8827614496
  H        13.9486681142        1.5788463189       16.0891441787
  C        12.4991805069        2.4807590730       17.3448652778
  H         6.7516519261        9.4205413080       16.1615849268
  C         6.3561455770        7.8372967364       17.4815407224
  H        14.2275872232        7.0095322926        5.8457109490
  H        14.9901297226        6.8408437299        4.2197379322
  C        15.5320870042        5.3677706628        5.5504347244
  H         7.3488048663        7.5540001407        3.3892284915
  H         7.4810171110        6.7345335735        1.8860709851
  C         5.7432222330        6.1183045983        3.2591589461
  N        11.5450819334       -0.6206859529        1.6988175522
  C        12.2052836983       -0.3037152317       -0.5030578201
  C        12.3232445109        1.9395319688       -1.5172968490
  H        12.2572471021        3.5944328960       -0.1798292024
  H        11.5298781165        2.0220902788       17.3231641104
  H        12.3773168561        3.5324027641       17.6241361389
  H        13.0436911153        1.8451903985       18.0968549872
  S         6.1265043841        6.2019500321       17.9459121922
  C         6.1055547329        8.8444330459       18.5543420551
  H        15.0208748878        4.5221409304        6.0419173166
  H        16.0103954718        4.9425015708        4.6893739814
  C        16.4420840312        6.0758062930        6.5943154265
  H         5.4824771580        6.7490651446        4.1563906656
  H         5.8388371522        5.0394836129        3.5362823556
  C         4.6034862461        6.2713692660        2.2617897734
  S        11.6879839077       -2.1622615711        1.1099965551
  N        12.1181977864       -1.7594731631       -0.4163113272
  C        12.3756471195        0.4649767982       -1.7311319191
  H        12.4898506406        2.5575059239       -2.3243059651
  C         5.8634068481        6.8677074957       19.5890062853
  N         5.7988667387        8.2274107264       19.6728382533
  O         6.3471694785       10.0417953226       18.4939425882
  H        16.9014783213        6.9627265561        6.1420626421
  H        15.7997821265        6.4897385659        7.3582472271
  C        17.5943264228        5.1348854723        7.1393225311
  H         4.9484687145        6.0243389720        1.2459413433
  H         3.9152635307        5.4795740839        2.4768018999
  C         3.8380178349        7.6500409092        2.2365988594
  C        12.6217225135       -0.2630577186       -2.9707288397
  S         5.6068470067        5.8555167928       21.0645381734
  C         5.8432371728        8.8923105238       20.9978164989
  H        17.1927663178        4.4640883713        7.8799311288
  H        18.0597042581        4.5066381752        6.3961932752
  C        18.7382548238        5.9206798991        7.8505178773
  H         3.1049347084        7.7971398740        2.9509062678
  H         3.2124442015        7.5788103898        1.3226967498
  C         4.6827992612        8.8994422309        2.0366774923
  H        12.4863122704       -1.3577708972       -2.9055688611
  C        13.3142697424        0.1079121739       -4.0927994650
  H         5.1692081618        8.4765447938       21.7462384470
  H         5.6880961054        9.9399246385       21.0201646748
  C         7.3111228608        8.7693086258       21.5488677222
  H        19.1215913021        5.2765806221        8.6176025108
  H        18.2639284523        6.8211680742        8.2561513624
  C        19.9621246256        6.1471444085        6.9435642195
  H         5.0689414732        9.1689310839        3.0374909573
  H         5.5626875399        8.6112620730        1.4166113702
  C         3.9487680977       10.1540926489        1.4983240079
  S        13.8935719258        1.6923133050       -4.4870755242
  C        13.4614764945       -0.8748619104       -5.2061339741
  H         8.0510552655        9.3682897245       21.0268292076
  H         7.7657013301        7.7887826548       21.5826047160
  H         7.3750852403        9.2152528533       22.4797159554
  H        19.5728579427        6.2363003956        5.8912807389
  H        20.7233293421        6.8605590598        7.2425176090
  H        20.4262645182        5.1749226492        6.9105302460
  H         3.0880482180       10.5196418783        2.0516589382
  H         4.5746069389       11.0023533930        1.4937247881
  H         3.6541488195       10.0786971036        0.4816010547
  C        14.1535119743        1.0503060338       -6.1138987362
  N        14.0515611972       -0.3010630183       -6.2526679921
  O        13.1899187537       -2.0618185442       -5.1135648617
  S        14.6037491232        2.0077591048       -7.5260486738
  C        14.3149930162       -0.9916121514       -7.4974217259
  H        14.6784926407       -2.0485794989       -7.4316272068
  H        15.1960675680       -0.5540402818       -7.8928045720
  C        13.0750825797       -0.8125534594       -8.4615998562
  H        13.1565727259       -1.2888223699       -9.4294251343
  H        12.8388291204        0.2432811420       -8.6031537785
  H        12.1943674638       -1.2826609012       -8.0378829245
  H        -1.1337445208       13.1610522099       17.1925418464
  C        -1.5838948884       14.0174882340       16.6651291513
  H        -0.8283865349       14.6820475277       16.2760403383
  C        -2.2022081224       14.8608219095       17.7609510365
  C        -2.5836617831       13.3110681054       15.6577775375
  C        -2.8667501704       14.0467460238       18.8606085267
  H        -1.4953479383       15.5495711993       18.2130166069
  H        -2.9128365323       15.5034639009       17.2456504447
  H        -2.9718575399       14.1278885952       14.9928895610
  H        -2.1159794192       12.7483620180       14.8726219363
  H        -3.4551405871       12.9017802995       16.2049293483
  C        -1.7801870703       13.3852432615       19.7238004518
  H        -3.5259177015       13.2282627401       18.4790913406
  H        -3.5607413021       14.5153987940       19.5543152606
  C        -2.1453975709       13.3480019713       21.1556994943
  H        -1.5893446116       12.3471459885       19.3914062963
  H        -0.8069234543       13.8581929179       19.5621825136
  C        -1.1395917185       12.7013265370       22.0520778169
  H        -3.0530545113       12.7901162945       21.2753664614
  H        -2.4002431591       14.3596104485       21.4317689172
  C        -0.0104665102       13.5918652032       22.4780461645
  H        -1.7129154830       12.4097852222       22.9509344666
  H        -0.6953256378       11.8600692996       21.5647692987
  C         1.1212727966       12.7984195235       23.2730792530
  H         0.4844946313       14.2544625773       21.7512967840
  H        -0.4363755667       14.3771037232       23.0929832044
  C         1.4272923298       11.4388265130       22.6404337396
  C         0.6399064760       12.1790230152       24.5208720024
  C         2.3221806117       13.6338135145       23.5479474955
  C         1.0938553773       10.3347411276       23.4133393915
  C         1.9106480319       11.0223024369       21.3628609777
  C         0.6180635853       10.8251974724       24.6230239668
  C         0.0756553846       12.7563611155       25.6171163376
  H         2.5770375807       13.9957868604       22.5585659909
  H         2.1238474773       14.4955744041       24.2542463462
  C         3.6270954324       12.8737219833       24.0214973928
  S         1.3442735901        8.8044445845       22.6914999692
  C         1.8780958213        9.6388777185       21.3401382399
  H         2.2824324470       11.7437382556       20.6790570808
  C         0.2370923251       10.1743522539       25.7648962115
  H        -0.0012216913       13.8754239483       25.5770187587
  C        -0.2876266055       12.1249496345       26.7984047376
  H         3.9031387680       12.1363423777       23.2326043646
  H         3.1620743542       12.3483168897       24.8061280780
  C         4.7092631968       13.8665154848       24.4677544160
  C         2.3150548581        8.8564249618       20.0968382630
  C        -0.2578211134       10.8173432848       26.9262058258
  H         0.3821599866        9.0713867952       25.6859315650
  C        -0.7685396939       12.5031339243       28.0414815788
  H         5.3307369616       13.4583493381       25.2451170563
  H         4.2808580224       14.6351052167       25.0087746893
  C         5.4914567378       14.3854996253       23.2717119236
  C         2.3196541388        7.4303695936       19.8604318527
  C         2.8547744114        9.6580383810       19.0337514253
  C        -0.6524097046       10.0855487289       28.1981558857
  C        -0.8954929029       11.4058472694       28.8926084712
  S        -0.9773146641       13.9734029994       28.8631050864
  H         6.2024854253       15.1845667975       23.5425429968
  H         4.8296976891       14.8763528651       22.6482100236
  C         6.1528802119       13.3586060682       22.3329812607
  N         1.9730942385        6.5255455164       20.8291342138
  C         2.6443589610        6.8487694205       18.6569606785
  C         3.1464532804        9.0997120552       17.8208192909
  H         3.0822725137       10.6894170167       19.1369319573
  C         0.4231785693        9.2467019956       28.8256137615
  C        -1.9402786851        9.1975446235       27.9663190994
  C        -1.2044353471       11.7646250419       30.1975983478
  C        -1.4830487365       13.0991974700       30.3148680912
  H         7.2454875665       13.4996242428       22.4005492957
  H         6.0804275747       12.2964708079       22.7445475111
  C         5.5983725308       13.4399913208       20.8694730691
  S         2.0155741047        5.0542420999       20.1074279966
  N         2.6179645481        5.4622220385       18.6574876640
  C         3.0506927293        7.6394612324       17.5285062958
  H         3.5409936088        9.7353927478       17.0704772796
  H         0.6115024853        8.3640458304       28.2555104813
  H         0.1804570679        8.7054622619       29.6746785868
  C         1.7161508705       10.0240393997       29.1553289152
  H        -1.6331876343        8.3867851403       27.3224507193
  H        -2.1098548575        8.8053736838       28.9935129421
  C        -3.2402071524        9.8701709320       27.4315459346
  H        -1.1972756765       11.0732865997       31.0156101942
  C        -1.7921163951       13.7892530735       31.6249867533
  H         5.3314315835       14.4433749829       20.5552529559
  H         4.7202063068       12.7769115502       20.8038408326
  C         6.6493904323       12.8713020798       19.9932783458
  C         3.2207965657        6.9981619099       16.2555680975
  H         2.0205777549       10.6937569227       28.3568250335
  H         1.4342059718       10.6725742999       29.9465835951
  C         2.7676936310        9.1236957636       29.6644490574
  H        -3.0765444340       10.1942881035       26.4581611001
  H        -3.3189294799       10.7853169907       28.0502254109
  C        -4.4804098017        9.1235081447       27.4732619705
  C        -1.7715832878       15.1755367131       31.8097804924
  C        -1.8909994972       13.0482277592       32.9135237134
  H         7.0731791552       12.0241865908       20.3758855657
  H         6.0746326662       12.5191535402       19.2119549214
  C         7.7611745944       13.8308238389       19.6165467589
  H         2.9704311750        5.9152649569       16.1806280870
  C         3.5826820374        7.5255770115       15.0554113742
  H         3.1275897759        8.4948764783       28.8040254948
  H         2.2924779121        8.6446973610       30.5524275028
  C         3.9377761657        9.9896525723       30.2699680902
  H        -4.2518308405        8.4141051632       26.7577656836
  H        -4.5149144471        8.5714770100       28.2995354974
  C        -5.7266249756       10.0350312878       27.2019817646
  N        -1.6103054375       16.1257919329       30.7633488913
  C        -2.0092851680       15.7677873738       33.0347486386
  C        -2.1631887705       13.5914638426       34.1690354087
  H        -1.8548944857       11.9581088716       32.8577625604
  H         7.8414548475       14.5979138146       20.4139777236
  H         8.5955184608       13.2220991776       19.5544288965
  H         7.5520478240       14.2879693095       18.7242260437
  S         3.9098931885        9.1695774740       14.6209232628
  C         3.5734574354        6.6029185779       13.8577427600
  H         3.8766336399       11.0385769949       29.9601790595
  H         3.7708984862       10.1160525850       31.3480117954
  C         5.3638339478        9.5289743290       30.1143132524
  H        -5.3314328818       11.0144178716       27.1504516130
  H        -6.4456337360        9.9473583072       28.0304894603
  C        -6.5269288783        9.6444359806       25.9172635868
  S        -1.5772352300       17.6041861609       31.4309380035
  N        -1.9885369504       17.1578413861       32.9573102673
  C        -2.3122837311       15.0515242794       34.2324911765
  H        -2.4437989475       12.9345877032       34.9729940066
  C         4.0033361160        8.6432000731       12.9385837960
  N         3.8885480967        7.2843672680       12.7664111628
  O         3.1661190596        5.3924020537       13.8540960540
  H         6.0970183166       10.2996883417       30.4722472182
  H         5.5074773591        9.2578348304       28.9829459230
  C         5.4905781043        8.2620791237       30.8547025702
  H        -5.8900490655        9.3704445894       25.1164329896
  H        -7.2676485939        8.8360376315       26.1799449660
  C        -7.3090523481       10.8099626674       25.3463999513
  C        -2.6254264512       15.8197342285       35.4560174308
  S         4.4999561547        9.6664672029       11.6052239960
  C         3.8468456015        6.7000043669       11.4512813739
  H         5.6698991067        8.4795362892       31.9168141465
  H         4.5902885027        7.6516061137       30.8088523035
  C         6.6163139257        7.3413887885       30.4684168031
  H        -6.5408762258       11.2809904540       24.6776542709
  H        -7.6040684129       11.5763386717       26.0539838239
  C        -8.4955969632       10.4181316154       24.4643999620
  H        -2.5406522605       16.9063246705       35.3560308699
  C        -3.1361730600       15.3597429104       36.5849650899
  H         4.6355016587        7.2628927078       10.8450001501
  H         4.2787699561        5.6691888622       11.4530825833
  C         2.4164577136        6.7152359010       10.9336152074
  H         7.4952128127        7.9459930170       30.2654884209
  H         6.3406305393        6.8545203309       29.4910123422
  C         6.9227951602        6.1734959976       31.3811961467
  H        -8.7158699101       11.1341996390       23.6221220567
  H        -8.3879025663        9.4462202859       23.9567854316
  C        -9.7731386504       10.3781338335       25.3328424609
  S        -3.7926813045       13.8060502079       37.0178617199
  C        -3.2537343230       16.3443975610       37.7198126068
  H         2.2776310302        5.7091446057       10.5860229513
  H         1.6796809661        6.8342804576       11.7700489825
  H         2.2247414079        7.4187934721       10.1350270126
  H         6.6207255003        5.2212492090       30.9199565733
  H         6.3010460252        6.2267469956       32.3513174260
  H         7.9914348938        6.2044837820       31.7236232293
  H        -9.9589278645       11.3755598512       25.7522022372
  H        -9.6839180542        9.6277877276       26.2041132748
  H       -10.6166960687       10.0308551661       24.7565577807
  C        -4.0396132619       14.3830887429       38.6205883257
  N        -3.8913294368       15.7207932301       38.7739276500
  O        -2.7936446070       17.4913910592       37.7969596928
  S        -4.9260208808       13.4829858093       39.8349921405
  C        -3.9657221233       16.4845881806       40.0632348359
  H        -4.4236414069       17.4326399326       39.7084598826
  H        -4.5762902153       16.0318782645       40.7873119307
  C        -2.5770688469       16.7687387886       40.6833541809
  H        -1.8265680790       16.3876167203       40.0873582695
  H        -2.3332465653       17.8115346120       40.6425346591
  H        -2.3223137461       16.3874774059       41.6896750128
