352
i=
  H         2.7346720006        1.8076277775       13.4311932164
  C         3.6401165685        1.8004968006       12.9057951070
  H         3.7488904898        0.7194748379       12.5060206384
  C         3.4004076354        2.7605532864       11.7350327889
  C         4.8368343592        2.1377526090       13.7884608922
  C         4.4555564599        2.8063710798       10.6446481327
  H         3.2752848811        3.7838784658       11.9842422884
  H         2.5247934041        2.5216979457       11.2705811861
  H         5.3683110336        1.2567429065       14.1270193615
  H         4.4175084066        2.8342047571       14.5224342397
  H         5.5465640320        2.6669951436       13.1476104799
  C         4.4944442197        1.4468847463        9.8787917668
  H         4.2613024378        3.5820976992        9.9376411749
  H         5.4056716423        3.0726119808       11.1309778519
  C         5.2595470746        1.5317163892        8.5607870648
  H         3.4308340157        1.1209456231        9.6891038302
  H         4.9327904942        0.6215903658       10.4140542503
  C         6.5702879157        2.4207754218        8.4981345212
  H         4.4959827949        1.8365482726        7.8164135103
  H         5.5195588262        0.5903073487        8.0909089303
  C         7.7008469580        1.6790288369        9.1146773516
  H         6.9330104156        2.6100235099        7.4625614540
  H         6.3411254030        3.3822745075        8.9371480230
  C         8.9359922026        2.4968464747        9.3863303284
  H         7.9602751409        0.8650226380        8.4634489982
  H         7.3729950842        1.2838512713       10.1064675041
  C         8.6510201391        3.8566089954       10.1179296576
  C         9.4345320561        3.2937822408        8.1929770402
  C         9.9570977203        1.6534669739       10.0669674370
  C         8.9974368135        4.9862751813        9.3866825015
  C         8.0093981268        4.2600437857       11.3140254612
  C         9.4716016595        4.6538908106        8.1515175514
  C         9.9348350026        2.6923824529        7.0203362394
  H         9.3798634544        1.2152212506       10.8752377178
  H        10.4632766286        1.0386818007        9.3346978751
  C        11.0929506377        2.4595614967       10.6492692115
  S         8.8193665240        6.5000373199       10.1597468087
  C         8.1568465453        5.6379170578       11.4914333711
  H         7.6489803225        3.5452653853       12.0545347756
  C         9.8344494462        5.3902074212        7.0404675157
  H         9.9056393907        1.5885105575        6.9808991874
  C        10.2716687757        3.3908503832        5.8849275287
  H        10.7465976202        3.2917415275       11.2826535937
  H        11.7498816576        2.8995191540        9.8843731651
  C        12.1482261210        1.6631784507       11.4538794478
  C         7.7663493624        6.2727650354       12.7898784104
  C        10.2889300458        4.7811222649        5.8361735044
  H         9.6689326419        6.4323781113        7.1244779987
  C        10.6129825382        3.0189612624        4.5797310259
  H        13.1242530082        2.1590216162       11.2695593991
  H        12.2671937423        0.7212928334       10.9885646107
  C        12.0832651957        1.5908405140       12.9363517959
  C         7.8271181781        7.6422106469       13.0204780458
  C         7.2335405158        5.4758607320       13.9238660705
  C        10.5258919500        5.4197007913        4.5148015916
  C        10.7497482482        4.1356928633        3.7095172437
  S        10.9343197594        1.4982905563        3.8024976240
  H        11.5166566178        2.4501818223       13.2436098152
  H        11.4828367802        0.7301196983       13.2973720262
  C        13.4695443296        1.4586621619       13.6935946293
  N         8.1489573447        8.5884814188       12.0593694907
  C         7.4806405517        8.1958983466       14.1820465077
  C         6.7547063534        6.0741433323       15.1008569203
  H         6.9625356236        4.4593040371       13.7672692603
  C        11.8110759998        6.3126604852        4.5837291543
  C         9.4182696692        6.2827706689        3.9332229803
  C        11.2327467926        3.7552864805        2.4765275801
  C        11.2968578605        2.3956440653        2.3576464904
  H        14.0032174991        2.3284217814       13.5691121620
  H        14.0664870997        0.6753714122       13.2202195383
  C        13.4687407156        1.0110583670       15.1486426704
  S         8.1514669164       10.1137701057       12.7703690653
  N         7.6467095208        9.6078476473       14.2210421849
  C         6.9517674200        7.4841157068       15.2620854707
  H         6.2896895950        5.4430472505       15.8318233392
  H        11.5946469504        6.9852482289        5.4382625684
  H        11.9182331051        6.9892301538        3.7369414490
  C        13.1702399326        5.6096256209        4.9270784571
  H         9.0005760853        6.9139479707        4.7424131934
  H         9.7878606735        6.8042462043        3.0220799960
  C         8.2252933640        5.4172354488        3.6055825072
  H        11.4866220143        4.4560235969        1.7709572958
  C        11.5556496383        1.6560496357        1.0950543136
  H        12.6506389337        0.3036592012       15.3773871656
  H        14.3407840599        0.3452416346       15.4452708617
  C        13.4110973648        2.1282278272       16.1928424444
  C         6.6866516047        8.1459847337       16.4681275338
  H        12.9870651690        4.7755789262        5.6219775999
  H        13.5585587111        5.1152091046        4.0693204936
  C        14.2200581813        6.6845468408        5.3981668162
  H         7.7471110742        5.0034407099        4.4476029853
  H         8.4172121792        4.6666566231        2.8853540177
  C         7.2545904761        6.2752784578        2.8607525145
  C        11.6874912995        0.2295508830        0.9861497324
  C        11.6779139665        2.3862677211       -0.1778992801
  H        12.8204514525        2.9207184977       15.8423559680
  H        14.3650423885        2.5880555977       16.4464381125
  C        12.9742713388        1.5202719845       17.5803633740
  H         6.8593188496        9.1664604188       16.3933399234
  C         6.5128551210        7.6487826931       17.7274394991
  H        13.7536436804        7.4292514497        6.0074275473
  H        14.6092788904        7.1530385001        4.5265036262
  C        15.3562693425        6.0117997463        6.2317715398
  H         6.7404954121        6.9250944901        3.6381595319
  H         7.6264623697        7.0400175588        2.1947260057
  C         6.1117827110        5.5766318773        2.0466450866
  N        11.6425569820       -0.7477478535        1.9754855186
  C        12.0047557677       -0.3457042904       -0.2742480812
  C        12.1303246430        1.7606269187       -1.3095075467
  H        11.6548307167        3.4880373403       -0.0672176799
  H        12.5839635412        2.2578866178       18.2511004866
  H        13.8555494852        1.0709365669       17.9887012868
  H        12.2167442079        0.8403733844       17.3723225717
  S         6.3663299680        6.0029028798       18.2469925604
  C         6.4124194441        8.5920430550       18.8659776185
  H        15.5794216201        6.7475324159        6.9852560712
  H        15.0063902695        5.1534987748        6.7890807953
  C        16.6126507370        5.4847354747        5.3705684357
  H         5.5486821660        4.8213368184        2.6910994426
  H         6.6234480655        4.9603466637        1.2889367184
  C         5.0868954005        6.5442408817        1.3226786572
  S        11.6261075488       -2.2347092251        1.2525142341
  N        11.9695187326       -1.7219285125       -0.2537841414
  C        12.2965442025        0.3291711380       -1.4393438295
  H        12.2280028327        2.3815252342       -2.1233540516
  C         5.9476600638        6.6402573919       19.8303728647
  N         5.9204332526        7.9586984080       19.9188651079
  O         6.6043320704        9.7972163359       18.7750875109
  H        16.3029044454        4.6078349806        4.8327652417
  H        16.9434441290        6.3224792083        4.6927616256
  C        17.6958181281        5.1421279066        6.4105264835
  H         5.5463899815        7.2681740080        0.6400195544
  H         4.5194042084        5.9124846793        0.6660118722
  C         4.2015298977        7.2019029813        2.3793072663
  C        12.7077951528       -0.4705419534       -2.5544721990
  S         5.3270793127        5.5886363786       21.1482007905
  C         5.7715189798        8.6621741350       21.2348876118
  H        17.2937109782        4.9944166794        7.3571347552
  H        18.2910680595        4.2713953586        6.1414357872
  C        18.7278181645        6.2762373463        6.4721573429
  H         4.2996152686        6.6617624857        3.3236880439
  H         3.1058996506        7.0510011117        2.1657474046
  C         4.4225956030        8.6724537174        2.5447927004
  H        12.8060925124       -1.5058044740       -2.4726316971
  C        13.1536388430       -0.1553294504       -3.8135648971
  H         5.1035527654        8.2149735527       21.9925800191
  H         5.3565137776        9.6858745025       21.1278676714
  C         7.1282350569        8.7111195396       21.8966230274
  H        18.2894525525        7.2341971762        6.7239453904
  H        19.1739294949        6.4373439089        5.5137397986
  C        19.7633999454        5.7990477211        7.4325274876
  H         4.1176994844        9.0472629174        3.5381533859
  H         5.4974157301        8.9544930868        2.5826121927
  C         3.7091191418        9.4857256600        1.4685863327
  S        13.5075460196        1.3931037775       -4.4287362273
  C        13.3596495768       -1.2531162390       -4.8288469153
  H         7.9271418440        8.5695432238       21.1670813973
  H         7.2371672040        7.9453555902       22.6284905610
  H         7.2954549241        9.6260933745       22.4594762354
  H        20.4483265177        5.0621261663        7.0382353034
  H        20.3281470354        6.7220412156        7.7493938926
  H        19.4430703180        5.3454436284        8.3438554958
  H         4.5367473796       10.0975959198        1.0498783190
  H         3.2250203170        8.9359643927        0.6587121939
  H         2.9966324829       10.1409406632        2.0457825265
  C        13.6980338991        0.5748475364       -6.0245728391
  N        13.7177676434       -0.7405256510       -5.9935059795
  O        13.2504185957       -2.4048566522       -4.6305444205
  S        14.2477940445        1.3319915014       -7.4705216782
  C        13.9110006857       -1.5302535236       -7.2094805430
  H        14.0668152139       -2.6190938994       -7.0847591248
  H        14.7924800334       -1.2039510212       -7.8353050925
  C        12.6294437907       -1.4699564161       -8.1298354828
  H        12.0799659916       -0.5692439129       -8.2562983909
  H        11.9541767916       -2.2136156913       -7.6769617866
  H        12.9689934312       -1.7478759494       -9.1546052899
  H        -3.2445382877       14.6057413285       16.3809723402
  C        -3.2270741675       13.4896116582       16.5324574402
  H        -4.2276798783       13.0845779517       16.6842780753
  C        -2.2958274614       13.0077808117       17.6900014578
  C        -2.7346459463       13.0172134920       15.1134365056
  C        -2.8384997238       13.5532324744       19.0255408196
  H        -2.2127676004       11.9008173090       17.7359762173
  H        -1.3579742694       13.4764974254       17.6235886935
  H        -2.9298098406       11.9513359029       15.1503100982
  H        -3.1035164747       13.4728344436       14.2229831305
  H        -1.6919974114       13.1978568774       15.0499898332
  C        -1.7871235417       13.3706260681       20.1727988844
  H        -3.6945630695       12.9075243391       19.2573042449
  H        -3.1185537125       14.5588130523       19.0628754529
  C        -2.3755254703       13.0239590451       21.5202602342
  H        -1.0808247154       12.6002207625       19.9034094719
  H        -1.0247160510       14.1667186981       20.1227063502
  C        -1.2538064310       12.5191016717       22.5144330274
  H        -3.0456663668       12.1645659175       21.2168913174
  H        -2.9096218441       13.9377370764       21.7863884538
  C        -0.1145667664       13.5672074777       22.7952501286
  H        -1.8777083495       12.2080280687       23.3986111768
  H        -0.8084336665       11.6181335753       22.1635500678
  C         1.1544778479       12.8693715997       23.4960681995
  H         0.2841989857       14.0364018369       21.9276851501
  H        -0.5873499928       14.3010257686       23.4656570046
  C         1.6786235249       11.5775854858       22.7972591148
  C         0.7559869819       12.1139868654       24.7263603150
  C         2.2547940695       13.9720852933       23.7071899664
  C         1.4701061038       10.4537554854       23.5310676236
  C         2.0919356045       11.2198115088       21.4900972195
  C         0.9214300699       10.7566310717       24.8260153723
  C         0.2565676325       12.6867994989       25.9056131951
  H         2.6031039042       14.1616084967       22.7047229869
  H         1.9039706133       14.9032254952       24.1197017990
  C         3.5199724011       13.4774695917       24.2849522242
  S         1.8203431201        8.9762748252       22.6973465710
  C         2.2793630318        9.8954187091       21.3325089746
  H         2.2972786314       12.0688917338       20.7730072442
  C         0.5644378439       10.0474546950       25.9161220226
  H         0.2117972584       13.7626768226       25.9719062958
  C        -0.0974592960       12.0051463428       27.0204228506
  H         3.9833614552       12.6985767804       23.6809378096
  H         3.3311501299       12.8026334906       25.1174276408
  C         4.5451722598       14.4949672696       24.6705659969
  C         2.8433311711        9.2434527547       20.0829127060
  C         0.0227130227       10.6376405365       27.0860017998
  H         0.6614812707        9.0325143894       25.8194279698
  C        -0.4724825656       12.3037200745       28.2785255280
  H         5.2704102735       14.0951269311       25.4051617470
  H         4.0360527412       15.3285583295       25.1436474214
  C         5.1645631839       15.1377636567       23.4237022154
  C         2.6761340547        7.8785550954       19.7189325393
  C         3.2901562722       10.1144720146       18.9475842714
  C        -0.3712943682        9.9510086718       28.3598101102
  C        -0.6364846031       11.2623559834       29.0787097217
  S        -0.6892568870       13.8623282810       28.9766502461
  H         5.5135459152       16.1487952118       23.5858825837
  H         4.2952162181       15.2481529686       22.7914712258
  C         6.1810672275       14.1672815809       22.7872719361
  N         2.1930292344        6.9079966208       20.5934689501
  C         2.9770583072        7.3288267189       18.4983586949
  C         3.5368836419        9.6439852549       17.6855238200
  H         3.5011985057       11.2235774488       19.0854352237
  C         0.8825287226        9.2237468370       28.8967910830
  C        -1.6710280903        9.1359191890       28.1919798798
  C        -1.0561328499       11.6691620881       30.3076862766
  C        -1.2132967036       13.0060179784       30.3710697138
  H         7.2150940793       14.5446645979       22.8200256514
  H         6.1528288495       13.2715819873       23.3736301119
  C         5.8082763031       13.6571599467       21.3446350758
  S         2.1474340879        5.4694807737       19.8906882072
  N         2.7271729729        5.9847192459       18.4674386928
  C         3.2839598149        8.2188221363       17.4436571147
  H         3.7978352050       10.3323845163       16.9269207610
  H         1.1501006036        8.4813260033       28.1280737523
  H         0.5120526119        8.7342108583       29.8109228540
  C         2.0592498540       10.0687158127       29.2635289680
  H        -1.4632919957        8.3221066580       27.5810395916
  H        -1.9403830681        8.7578048661       29.1484854596
  C        -2.8527597544        9.9941555621       27.7312082485
  H        -1.2828144318       11.0003873248       31.1446183792
  C        -1.6453955336       13.8586738566       31.5532568767
  H         5.6779288141       14.4735016616       20.6629135895
  H         4.8308889256       13.1046541725       21.5815003532
  C         6.7144848631       12.6188982059       20.7073960660
  C         3.4475502487        7.5694572486       16.1580060465
  H         2.3219112164       10.7529651672       28.3682822490
  H         1.6400344237       10.6124016898       30.1400893040
  C         3.2985381463        9.2920594674       29.7317046798
  H        -2.4629860215       10.6579025645       27.0035265572
  H        -3.2186272384       10.5039187088       28.6377599885
  C        -4.0802326002        9.1578365412       27.2270612531
  C        -1.7463412263       15.2683926125       31.6299076457
  C        -1.8606037389       13.1726838642       32.8756326388
  H         6.9552900731       11.8594642616       21.4937509695
  H         6.3032914256       12.0735031154       19.9122860994
  C         8.0310772901       13.1024146641       20.2449298412
  H         3.3083162094        6.5058603508       16.1369964515
  C         3.5818021062        7.9968716004       14.9043240330
  H         3.7487337620        8.9264484715       28.8108495573
  H         2.9915888929        8.4157863264       30.3395474534
  C         4.1990164096       10.2511715233       30.5347184239
  H        -3.9362839964        8.3956379464       26.4688305091
  H        -4.5952869256        8.6708777684       28.0788842725
  C        -5.0242592206       10.2122947846       26.6517715700
  N        -1.3971714450       16.1981905483       30.6122852620
  C        -1.9320072080       15.9476632828       32.8478277053
  C        -2.0544495306       13.8514455013       34.1017069649
  H        -1.7123297826       12.1391895378       32.7740799180
  H         8.3976241326       13.7405008093       21.0066265521
  H         8.7449299625       12.3419722439       20.0801210288
  H         7.8491449627       13.7990794635       19.3831592156
  S         3.8894117351        9.5880159809       14.5102079997
  C         3.7640251979        6.9582848261       13.8504658734
  H         4.0039414679       11.3004062735       30.2322225476
  H         3.8357148438       10.3398138767       31.5615417540
  C         5.6637292608        9.9270296831       30.4518076889
  H        -4.6818770582       10.7734194274       25.8184115432
  H        -5.1959419212       10.9497150304       27.4495384677
  C        -6.3299384985        9.6102200467       26.3322629010
  S        -1.5119153388       17.7164595260       31.1819336510
  N        -1.9141395287       17.3422417539       32.7049534896
  C        -2.2036854168       15.3632741596       34.1176078195
  H        -2.1566519312       13.2871964833       35.0235182883
  C         4.3730565712        8.9854116615       12.9465458860
  N         4.3654645634        7.6522256291       12.8327982223
  O         3.7954111420        5.7577291592       14.0946238109
  H         6.1752220221       10.5677764818       31.1596124209
  H         6.1456250563       10.0446268126       29.4648692062
  C         5.9276730267        8.4348144972       31.0095887418
  H        -6.1686871780        8.6361782002       25.8728481444
  H        -6.8627436844        9.4027645247       27.2865064987
  C        -7.2351733015       10.6757207938       25.6469244272
  C        -2.5009025679       16.1882604400       35.2570729505
  S         5.0578272815        9.8638127162       11.5173462829
  C         4.7587489054        6.9262182043       11.6311534734
  H         6.3263155368        8.3491970762       31.9957096785
  H         5.0250490825        7.7607736375       31.0724756110
  C         6.9118755278        7.5889248273       30.1712187589
  H        -6.6378919247       10.9908059106       24.7892627864
  H        -7.2604990221       11.6407549136       26.1590102793
  C        -8.5544706499       10.2178804757       25.0499461927
  H        -2.2581812563       17.2103754017       35.1172208111
  C        -2.9810791837       15.9175526835       36.5111439220
  H         5.6328184113        7.3805891611       11.1471664380
  H         5.1400915253        5.9402187632       11.7273255459
  C         3.5451404002        6.8043191409       10.8256711694
  H         7.8582746657        8.1015138041       30.2339215737
  H         6.5442840422        7.5842830780       29.1516956627
  C         7.0050598773        6.2008568764       30.6152345668
  H        -8.9843359188       10.9760859071       24.3759551849
  H        -8.4867389811        9.3397396149       24.4055770633
  C        -9.5126083772        9.8387612501       26.2573331619
  S        -3.4507177564       14.3744102782       37.1778268244
  C        -3.2144684785       17.0634382280       37.4769544337
  H         3.6953476653        6.9852201323        9.7467363144
  H         3.0434697207        5.8538527027       10.9774516429
  H         2.8227005644        7.5674894587       11.0492161426
  H         6.0542886569        5.6387884951       30.5675452763
  H         7.3768410717        6.2179714855       31.6209422347
  H         7.6855684694        5.6832918750       30.0037457442
  H       -10.4919547565       10.3470565695       26.2098596905
  H        -9.1399304186        9.9079178866       27.2458436483
  H        -9.7991034191        8.8156302542       26.3003254482
  C        -3.9205508420       15.1968857224       38.6813032952
  N        -3.6649163324       16.5063003429       38.6743719787
  O        -2.8453029602       18.2353735912       37.2584720414
  S        -4.5126473236       14.4215687749       40.1180529196
  C        -3.8382452662       17.3601046313       39.7854513554
  H        -4.1136634665       18.2287450109       39.1855675841
  H        -4.6706949206       17.1212029533       40.4470841733
  C        -2.5915402261       17.6073438320       40.6590868043
  H        -2.9072165194       17.1904427664       41.5972532485
  H        -1.6881508567       17.1840670446       40.3410886714
  H        -2.3871062531       18.6775692191       40.8013786281
