352
i=
  H         4.6774629638        1.5056640833       12.8204694404
  C         3.9849307069        2.2813676658       13.0004872164
  H         4.3585037371        3.2704159425       13.0524357902
  C         3.0010245552        2.3795854133       11.7891252029
  C         3.2387408098        1.9299136724       14.2696218372
  C         3.7776603485        2.5847159029       10.5226026053
  H         2.4864929850        3.3467502484       11.9295766747
  H         2.2926122710        1.5870922230       11.6513065557
  H         2.6791166898        1.0021256532       14.0755023282
  H         2.6335949928        2.7534933357       14.4830150246
  H         3.9530045399        1.6201103973       15.0395645056
  C         4.5615276191        1.3343788873       10.0054024125
  H         3.0098671916        2.8215103524        9.7516476020
  H         4.4382837184        3.4335869812       10.6388157334
  C         5.2084467234        1.6514724042        8.6252030224
  H         3.7692463132        0.6189108508        9.8248331764
  H         5.2858563753        0.8993108095       10.7032290381
  C         6.5335482950        2.4967914054        8.5271710159
  H         4.4443164932        1.9636080388        7.9308215037
  H         5.6257032237        0.6690187617        8.2652053473
  C         7.6579233321        1.7263259008        9.2914322296
  H         6.8786019506        2.8317551703        7.5543579453
  H         6.2606214111        3.3962913424        9.0837481354
  C         8.9982729002        2.6031867704        9.4248079963
  H         7.8462799983        0.8622916968        8.6453928684
  H         7.2983726161        1.2324510553       10.2374584747
  C         8.6553197424        3.9129627305       10.0499741655
  C         9.5156827028        3.2520894694        8.1545963337
  C        10.1805237194        1.9397035489       10.1732990997
  C         8.8988565998        5.0370009154        9.2563064768
  C         8.1646619105        4.3469962154       11.2695880186
  C         9.4559917477        4.6160323166        8.0640916390
  C         9.9782905832        2.6125246479        6.9965483018
  H         9.7379142266        1.2505061348       10.9128407844
  H        10.7479292499        1.3921091073        9.4478029737
  C        11.1918691266        2.8479036289       10.8802815119
  S         8.5136878256        6.5456477292        9.8974795675
  C         7.9387336713        5.6378362245       11.2929641167
  H         7.8345495762        3.6882934046       11.9845811127
  C         9.9426817716        5.2232469098        6.9435865634
  H         9.9608817553        1.5546642747        7.0967140432
  C        10.3443351889        3.2678380572        5.8700054466
  H        10.7352941549        3.6405218651       11.5311340325
  H        11.8322273740        3.3510775573       10.1174558257
  C        12.1009464015        2.1309729229       12.0015872465
  C         7.4044027458        6.3427737368       12.4603165491
  C        10.3618209172        4.6132450403        5.7855275564
  H         9.9841305035        6.3052138180        6.8865788483
  C        10.6254816207        2.8476398248        4.5573587976
  H        12.8864984414        2.8714996320       12.2731030975
  H        12.7736861852        1.4045388481       11.4709814061
  C        11.2978842573        1.5900031410       13.1974299878
  C         7.2612013420        7.7572173442       12.6687586044
  C         7.0128081854        5.5012496368       13.6320322199
  C        10.6755613115        5.2694584881        4.4502366194
  C        10.9390762182        3.9219280802        3.7715340660
  S        10.5208249242        1.3295467797        3.7356139745
  H        10.2506334668        1.6888878040       13.2119059568
  H        11.5891028403        0.5419840247       13.1219726152
  C        11.7954225711        2.2047129621       14.4363915577
  N         7.4894989078        8.7328478880       11.7055514801
  C         7.0701847340        8.3470212863       13.9183811708
  C         6.7683131578        6.1446117598       14.8710002257
  H         6.9821895152        4.4834677259       13.6085947497
  C        11.9838192714        6.1192430447        4.3935917459
  C         9.4855420936        6.0458319292        3.8225125748
  C        11.1645927033        3.5260696690        2.4492424244
  C        10.9147734150        2.1590350341        2.2738713382
  H        10.9534973559        2.3518036304       15.1516256569
  H        12.1776387031        3.1853660221       14.3156589304
  C        12.9679429827        1.4501481093       15.0599369855
  S         7.2729824034       10.1864086793       12.3437054825
  N         7.0084832222        9.7304867404       13.8546099194
  C         6.8413230562        7.6406802571       15.0930367443
  H         6.6056301690        5.4261897275       15.6344589434
  H        11.7921467848        6.9851799224        5.0355100634
  H        12.1793140544        6.6290084470        3.4507955347
  C        13.3288549275        5.4922937253        4.9432858019
  H         9.0707987508        6.8053917894        4.4849725585
  H         9.8326770281        6.7067825884        2.9469043630
  C         8.2702940376        5.2835821009        3.3182085337
  H        11.4526333187        4.2155257176        1.6954486733
  C        11.2961526867        1.4397538877        1.0102590431
  H        12.8784187895        0.3932911703       14.9620444158
  H        13.8131692303        1.6366988375       14.3156608286
  C        13.5060998546        1.8809257758       16.4147271345
  C         6.7019559997        8.3276654811       16.3373489258
  H        13.0457923586        5.2482677263        5.9568103270
  H        13.4126457719        4.5641816759        4.4702646859
  C        14.5122489381        6.4478713048        4.8065927558
  H         7.7599678794        4.7112772614        4.1530941683
  H         8.3962933087        4.5336700307        2.5189841108
  C         7.2383477043        6.1927823264        2.7850603671
  C        11.4008297919        0.0199974928        0.8541468270
  C        11.7306506487        2.2159480363       -0.1934607262
  H        14.2716239110        2.7229796498       16.2969335480
  H        14.1319263078        1.1216770839       16.8095061966
  C        12.3724366327        2.1730862973       17.4668807267
  H         6.8286316742        9.4051837541       16.2609115486
  C         6.5837986252        7.9723814869       17.6252071915
  H        14.3192575510        7.0457995305        5.6687071752
  H        14.5183002497        6.9502596475        3.7873666548
  C        15.7911920724        5.7853390793        5.1728848770
  H         7.2190731977        7.0463319820        3.4535918351
  H         7.4604759048        6.6669341364        1.8409829734
  C         5.8047782435        5.5124281055        2.7729286622
  N        11.1432725710       -0.9146245899        1.8636935666
  C        11.9332704781       -0.5489190437       -0.2764627016
  C        12.1065741833        1.6127307756       -1.3354042568
  H        11.3619506720        3.1896041083       -0.2108885012
  H        12.8622246424        2.3509605929       18.4472106987
  H        11.8688063765        1.2676019281       17.5073112574
  H        11.7157550966        3.0263057422       17.2659687106
  S         6.2425066674        6.3783082882       18.1315702771
  C         6.5213351743        8.9911618149       18.6688225024
  H        15.6195787154        4.7412365656        5.0645938891
  H        16.6456012435        6.0818299421        4.5801821834
  C        16.1807621768        6.0803578194        6.6823996349
  H         5.4915014738        4.9167822761        3.6294889872
  H         5.8501406918        4.7824851935        1.9347028646
  C         4.5414399339        6.4182814296        2.4867632232
  S        11.3607404891       -2.3942322233        1.3155525422
  N        11.9530195232       -1.9482576614       -0.1438945206
  C        12.2447634452        0.1370449501       -1.4666387533
  H        12.3345132443        2.2795407496       -2.1411363579
  C         6.2086404955        6.9973822794       19.8183185037
  N         6.2592396806        8.3843864191       19.8675721679
  O         6.6500432442       10.1270341626       18.3894749775
  H        16.2610120729        7.1482118364        6.9513229618
  H        15.3148085493        5.7906919955        7.3559846117
  C        17.2517092468        5.2536806399        7.3544201933
  H         4.3881947912        6.5484120395        1.3997663098
  H         3.7330406704        5.7867713000        2.9509856109
  C         4.4324848114        7.7659662465        3.1649538206
  C        12.5616403893       -0.6147315664       -2.6363395624
  S         5.6670516087        6.0820019629       21.1415021113
  C         6.1480406089        9.2053397320       21.0669566253
  H        16.9067670736        4.9077245614        8.3551480740
  H        17.3125836416        4.3328050714        6.7423654646
  C        18.5669621080        5.9507217192        7.5712736101
  H         5.4196611322        8.1571019638        3.2090892443
  H         4.0431908370        7.6471469210        4.2181947698
  C         3.6003500719        8.7405354581        2.4044262493
  H        12.3253570439       -1.5959707318       -2.5136398181
  C        13.1401020861       -0.2406446637       -3.8211944389
  H         5.2624748610        9.0188842696       21.7744984417
  H         6.1749222484       10.2461445166       20.8202521670
  C         7.3297075880        8.9839580757       21.9861328474
  H        19.3551452022        5.2844409170        7.9944232467
  H        18.5906703098        6.7561808330        8.2167896355
  C        19.0334954682        6.4062503459        6.1825249073
  H         2.7380459170        8.2651545578        2.0321653638
  H         3.4130765124        9.5365799782        3.1348568560
  C         4.3956513308        9.4634282485        1.3181116240
  S        13.5741216467        1.3323006049       -4.2422051622
  C        13.1866232798       -1.2792670946       -4.9304864730
  H         7.7711630716        9.9143796703       22.4242334484
  H         8.0920371744        8.5264362078       21.3793035797
  H         7.0630683888        8.4704926938       22.8752663544
  H        20.0734321599        6.8207739653        6.2470723713
  H        19.2154128732        5.6372573917        5.4842368440
  H        18.4206963360        7.0216865673        5.5785312792
  H         3.8769238143       10.3762684517        1.0631072017
  H         5.3034334939        9.9705190147        1.6651657322
  H         4.7559400903        8.7730313060        0.5099017490
  C        13.9844472797        0.6532959435       -5.7905284996
  N        13.7653391837       -0.6844368464       -5.9407865992
  O        13.0339299100       -2.4777775774       -4.8148594077
  S        14.7509268442        1.5595596358       -7.1884871608
  C        13.9852992216       -1.3667464596       -7.1600013723
  H        13.7916003303       -2.4518567300       -7.0698649831
  H        15.0560972026       -1.3453680548       -7.5542010917
  C        12.9918562080       -0.8300553291       -8.1363908608
  H        13.4957396900        0.0006553021       -8.5655465470
  H        12.0668701924       -0.4156487709       -7.6310427013
  H        12.8646627157       -1.4388483924       -9.0673900642
  H        -3.4529678937       14.6852801213       16.8110846056
  C        -3.2009514699       13.6391727720       16.6800778848
  H        -4.0919224195       13.0551331433       16.7584430688
  C        -2.2377895184       13.0849914529       17.8316958346
  C        -2.5621883210       13.4036326902       15.2736859415
  C        -2.8846814639       13.4376823769       19.1547841755
  H        -2.2722548098       11.9811379178       17.8558785609
  H        -1.2061479088       13.3278939997       17.7538298072
  H        -3.1309703145       13.7224542419       14.4757972078
  H        -1.6911640445       14.0112402576       15.0564580956
  H        -2.3142043437       12.3535047487       15.1486586450
  C        -1.8779039425       13.4575894124       20.2964890959
  H        -3.7540372748       12.7821778315       19.2962096872
  H        -3.3394259573       14.3808221743       19.0633323538
  C        -2.4718360358       13.2294106472       21.7537749897
  H        -1.2542978259       12.6298677395       20.0878736119
  H        -1.1710308418       14.2868148210       20.2257362691
  C        -1.3989744699       12.7231589543       22.6478249504
  H        -3.2409963098       12.4805247858       21.8031361495
  H        -2.8952914737       14.1057355241       22.2632153492
  C        -0.2123150713       13.6291762540       22.7585417098
  H        -1.7128589276       12.4997037366       23.6946725765
  H        -1.1126679632       11.7920252034       22.2424374196
  C         1.0205329744       13.0102117324       23.5270527208
  H         0.1680800262       14.0189234553       21.8819938652
  H        -0.5308470185       14.4746954060       23.2260689298
  C         1.3187660604       11.6324233813       22.7786156056
  C         0.5302762016       12.2999134170       24.7721776973
  C         2.2581780646       13.8706717958       23.7647932124
  C         0.9470514882       10.5210422363       23.5642853165
  C         1.7929423498       11.3263378636       21.5081939192
  C         0.5334759017       10.9484076647       24.8048542155
  C         0.0492876823       12.9374433028       25.9107094716
  H         2.3886754221       14.4540665213       22.8299816737
  H         2.0207043828       14.6144818545       24.5637329860
  C         3.5938062088       13.1835542561       24.0010940297
  S         1.2560781821        9.0680598861       22.7471667163
  C         1.8451612321        9.9576572806       21.4349416534
  H         1.9934814294       12.1571103732       20.8910373090
  C         0.1461635815       10.2714484141       25.9020100493
  H        -0.0042546298       14.0083702606       25.9035641784
  C        -0.3289697163       12.2167043922       26.9920968794
  H         3.9308187892       12.5021534810       23.2394192879
  H         3.3520567418       12.4946986267       24.8031697311
  C         4.7527926373       14.1205769300       24.4347353745
  C         2.2508092066        9.2857169937       20.1407476700
  C        -0.2743310832       10.8741388656       27.0639617419
  H         0.2360659651        9.1226733209       25.8601245181
  C        -0.7534168163       12.6121901825       28.2294182280
  H         5.4774652541       13.3600966561       24.7740802895
  H         4.4441559592       14.6605272227       25.3318612505
  C         5.3204905317       14.9163914817       23.2774178800
  C         2.3339114097        7.8973060778       20.0056920408
  C         2.4582765411       10.1185179259       18.9336046688
  C        -0.7150516761       10.1962762536       28.3026876240
  C        -0.9382290336       11.5098359335       28.9762310278
  S        -1.0821538138       14.1447385011       28.9287378025
  H         5.5858724288       15.9085351542       23.5644590370
  H         4.5222861324       15.0397417777       22.5133313898
  C         6.4918894399       14.1097230635       22.6729215408
  N         2.2141765621        6.8851097090       21.0251907133
  C         2.6786854530        7.2966367631       18.8178426431
  C         2.7779397482        9.5004949192       17.7074343860
  H         2.3125498309       11.1107739382       18.8682150892
  C         0.4135147845        9.4192431085       28.9815348531
  C        -2.0156487302        9.3937918706       28.1482820469
  C        -1.4414297689       11.9129014011       30.2508152584
  C        -1.5888497195       13.2523129242       30.4640753090
  H         7.2645582006       14.9508196306       22.5336139896
  H         7.1133381433       13.4352058551       23.3490561064
  C         6.1393476051       13.6014660868       21.3004780722
  S         2.3503353036        5.4544111309       20.3522674515
  N         2.6994393975        5.8851043539       18.8492908378
  C         2.9707342180        8.0306314054       17.6547883190
  H         2.8232046359       10.1083319397       16.8621908430
  H         0.5249575611        8.4094860303       28.5843433118
  H         0.2082605210        9.0825900962       29.9808491723
  C         1.7194887580       10.1539222354       29.0640745508
  H        -1.8674754595        8.5319733009       27.5312676710
  H        -2.2019713582        8.8765102134       29.0945093536
  C        -3.1979136750       10.2912125951       27.7432648669
  H        -1.8360769735       11.0541053632       30.9043810037
  C        -1.8646335455       14.0152827636       31.7330775920
  H         5.4696848170       14.3225424619       20.7679490871
  H         5.6220300696       12.7315996236       21.6392819323
  C         7.3361605248       13.3933439533       20.3675730770
  C         3.2303678474        7.3170711796       16.4415178666
  H         1.9406149226       10.4909345628       28.0391238338
  H         1.7431621313       11.1125360153       29.7119358525
  C         2.9028844296        9.4048684755       29.6542769432
  H        -2.8046568589       11.0650874483       27.0400656525
  H        -3.7711611394       10.7766129523       28.5274477557
  C        -4.2360767843        9.4319129916       27.1174604397
  C        -1.8093945027       15.4583763453       31.7910646868
  C        -2.0869285319       13.2732370806       32.9760328872
  H         8.1362747476       14.0766765196       20.6628453105
  H         7.7098281491       12.3733587974       20.4143698078
  C         6.8291611467       13.5108783439       18.9177372115
  H         3.0242339954        6.2087928206       16.4371946082
  C         3.4855445898        7.7323481776       15.1287613166
  H         3.2727930883        8.6250402958       28.9437039197
  H         2.5393651611        8.9409038242       30.5998610089
  C         4.1669105426       10.2754809813       29.7755991527
  H        -3.8584680686        8.9359448458       26.2397096557
  H        -4.6106476652        8.7036404548       27.8487584752
  C        -5.3077635642       10.2856062969       26.6279198398
  N        -1.5380679690       16.2983983908       30.7178465579
  C        -2.1579049047       16.1089681935       32.9106813132
  C        -2.2788647769       13.9677687662       34.1512220458
  H        -1.9711970967       12.1680790785       32.9025535838
  H         7.1311064473       14.5026006030       18.4356041446
  H         7.2750401985       12.7300278537       18.2412197539
  H         5.7794083298       13.5611650820       18.7789768182
  S         3.8569451131        9.3656718327       14.6467360759
  C         3.4518442124        6.7814363616       14.0056687739
  H         4.2795171369       11.0634307214       29.0070470702
  H         4.1587327519       10.8479553096       30.7108074650
  C         5.4093544481        9.5069126182       29.9251416168
  H        -4.8393643976       10.9116411595       25.7717855834
  H        -5.6821107355       11.0062236881       27.3596720882
  C        -6.4956395153        9.4297048861       26.1260453503
  S        -1.7051202607       17.8234900938       31.2599499529
  N        -2.1111823892       17.4734574333       32.7848975644
  C        -2.4526008524       15.4854345334       34.1602176615
  H        -2.3151150100       13.3745234203       35.0652484623
  C         3.9160692264        8.6946420124       12.9488722278
  N         3.7578407766        7.4038596924       12.8968643150
  O         3.2359082182        5.5693407741       14.1568461011
  H         6.1908587396       10.2444433708       29.8410683245
  H         5.6038243943        8.7583728366       29.1839316708
  C         5.4330816824        8.9299919486       31.3395138400
  H        -6.1447092363        8.7076505380       25.3440881172
  H        -6.9199257584        8.8286803035       26.9331685932
  C        -7.6263769919       10.2973854550       25.5070842509
  C        -2.7397272112       16.3242669067       35.2863455264
  S         4.1143774358        9.6210711098       11.5110450705
  C         3.7163495855        6.5713760354       11.6934373083
  H         6.1438942758        9.5896337618       31.8594901708
  H         4.4054627287        8.9396182281       31.8664082448
  C         6.0412099548        7.5491062984       31.3449975733
  H        -7.4298012358       10.4358300906       24.4387436709
  H        -7.7849796185       11.2543356690       25.9412262530
  C        -9.0373480557        9.7459131413       25.5193798694
  H        -2.5871653794       17.4023472179       35.2149417055
  C        -3.2367059959       15.9216953319       36.4555518613
  H         4.2617530238        7.0141641583       10.8495338621
  H         4.3221985015        5.6127728640       11.8211764804
  C         2.2835632623        6.2396493820       11.3653079179
  H         6.4892688338        7.3424377551       32.2809776431
  H         6.8961809749        7.5212868365       30.6444883750
  C         5.0517509434        6.4795674922       31.0111566323
  H        -9.5880064278       10.1249260246       24.7094543552
  H        -8.9975155487        8.6593984747       25.4318372657
  C        -9.7899501300       10.0793211188       26.7687062952
  S        -3.6947603285       14.3218278291       36.9168112069
  C        -3.3354458695       16.9540872815       37.5266025015
  H         2.1622455162        6.3989335419       10.3368732892
  H         2.0748632261        5.2218275749       11.5148321022
  H         1.5603856139        6.8768526606       11.8831975294
  H         4.5721228517        6.6755464302       30.0465820698
  H         4.2936163274        6.4296167629       31.7644819328
  H         5.5379489437        5.4744680462       30.8711532869
  H        -9.1605720158       10.5336784379       27.6021731523
  H       -10.1862910682        9.1761677409       27.1862586328
  H       -10.5748362148       10.7532202637       26.4720512325
  C        -3.9332949564       15.0111640507       38.4691689270
  N        -3.9576180998       16.3707889472       38.5869282215
  O        -3.0969960102       18.1253343601       37.4460985516
  S        -4.6526134704       14.1020804875       39.7384377329
  C        -4.1329622166       17.1371709939       39.8303031674
  H        -4.6848767935       18.0396480214       39.6531303814
  H        -4.7305743528       16.5223680265       40.5835967327
  C        -2.7575515235       17.2777741325       40.4450091665
  H        -2.7153371797       18.1387645960       41.0434370249
  H        -2.4216301719       16.4432442025       41.0313228128
  H        -1.9554417346       17.4549552271       39.7181469054
