352
i=
  H         3.2912388609        3.9465856586       12.2412525241
  C         3.0721301091        2.8754854662       12.3935172576
  H         2.1811382075        2.8692810137       13.0356676571
  C         2.6371666182        2.2137186287       11.0617408000
  C         4.2398303298        2.2680401539       13.1035510071
  C         3.5193068766        2.5302977305        9.8501838387
  H         1.6848959153        2.5595647553       10.8635889963
  H         2.5688756930        1.1567160965       11.2815153655
  H         5.1547584392        2.5776262960       12.5917471596
  H         4.0439924616        1.1932222649       13.2121604065
  H         4.3187893780        2.6206390374       14.1132471371
  C         4.4607673217        1.3167645567        9.4935716723
  H         2.9549206725        2.7304082266        8.9707945335
  H         4.0613337253        3.4782047514        9.9775569236
  C         5.3033315321        1.5846332603        8.2316783281
  H         3.8972380401        0.3524248402        9.3719257071
  H         5.1379995824        1.1184937811       10.3266237056
  C         6.4918766252        2.4250677613        8.4789979604
  H         4.6070549260        2.2332434591        7.6751063441
  H         5.4281411754        0.8457877876        7.4610380665
  C         7.6816163059        1.7204688873        9.1385295771
  H         6.8751982249        3.0292403633        7.6966239507
  H         6.2417140933        3.0640589064        9.3121925504
  C         8.9871481626        2.5771869788        9.3212823102
  H         7.9344250762        0.8900867450        8.5593067788
  H         7.2708839671        1.4238066999       10.1022789815
  C         8.5558077028        3.8962465008        9.9281415819
  C         9.4578631433        3.2809353659        8.0211395043
  C        10.1333146145        1.9380146809       10.1746662339
  C         8.8233925638        4.9947321787        9.1076590093
  C         7.9763354567        4.3047358267       11.1933098559
  C         9.3840902222        4.6101041760        7.8856048053
  C         9.9717272272        2.6957979844        6.9130570995
  H         9.6555837015        1.5777632116       11.0921401647
  H        10.4994336994        1.0783762741        9.6955299026
  C        11.2873328133        2.9026928986       10.4868386595
  S         8.4144065721        6.5361397570        9.7909354388
  C         7.8412731417        5.6725892684       11.2110824867
  H         7.7395727156        3.5176092891       11.8568403891
  C         9.7288892252        5.2569388000        6.7461588683
  H         9.8705102066        1.6164476083        6.9652033522
  C        10.3557074540        3.2967708130        5.8132545806
  H        10.9112338393        3.8117352565       10.8309068881
  H        11.8231346153        3.1572563949        9.5685889737
  C        12.3528385836        2.3889468142       11.4974522751
  C         7.4517654875        6.4795577919       12.4650873694
  C        10.2334515087        4.6443560202        5.6677839882
  H         9.5791189846        6.3013093815        6.6925928288
  C        10.8043171483        2.9018217223        4.5680384005
  H        13.3604046995        2.7877720580       11.3466067525
  H        12.3106410943        1.2799849744       11.3311500827
  C        11.9312858507        2.6371260903       12.9585632656
  C         7.5337132889        7.8942306227       12.6583785302
  C         7.1433490477        5.7525224615       13.6998376769
  C        10.6373619897        5.3325673892        4.3824697476
  C        10.9731625430        3.9820686068        3.7308937459
  S        10.9256701190        1.3178200479        3.8560413545
  H        12.1646692909        3.7029624410       13.1312320556
  H        10.8687420307        2.7275697019       13.0764522282
  C        12.6087235499        1.7690867113       14.0432521061
  N         7.7703605967        8.8651560680       11.6510474135
  C         7.3838631608        8.5058981759       13.9075952202
  C         6.9701541576        6.3469403102       14.9413660442
  H         6.9485720943        4.6935739636       13.6117164063
  C        11.9396772838        6.2517471053        4.5577268213
  C         9.4705074828        5.9855428225        3.6436087561
  C        11.3741297662        3.4649393980        2.4684291580
  C        11.4088570729        2.0828729092        2.3608418524
  H        13.6948640839        1.8915859982       14.0752356159
  H        12.3131790278        0.7411088779       13.8867422095
  C        12.0717044217        2.1918586371       15.4521213738
  S         7.7092280567       10.3432343117       12.3102962421
  N         7.4962093564        9.9006086587       13.8755788915
  C         7.1164699688        7.8271095497       15.0911050694
  H         6.6122793282        5.6868700958       15.7282581198
  H        11.7575376132        7.0759532486        5.1798254078
  H        12.2322085999        6.7678502973        3.6130206238
  C        13.1042263560        5.6155638365        5.3435787889
  H         8.8864585922        6.5828454332        4.3777644032
  H         9.9381143230        6.7673038420        3.0069396010
  C         8.5586553122        5.0876142203        2.7843001721
  H        11.4833324411        4.0895445070        1.6640991245
  C        11.7359963985        1.3384752809        1.0707576691
  H        11.6968487172        3.1965623360       15.3194342187
  H        11.2623471482        1.5668518696       15.6443547983
  C        13.1896854455        2.1037270611       16.5780259636
  C         6.7586998013        8.6307914096       16.1933209299
  H        12.8433126245        5.3389280085        6.3506291027
  H        13.3768217406        4.6803656105        4.8230071137
  C        14.3772714278        6.4377096842        5.4467659019
  H         8.2305572748        4.2371438529        3.4259087870
  H         9.1437237145        4.7398007329        1.9450652600
  C         7.2269811348        5.6491100539        2.3349254955
  C        11.6285241523       -0.0739972144        0.9674087565
  C        12.1973193331        2.0771817869       -0.1333391935
  H        14.0788296556        2.7456232688       16.4027054274
  H        13.5194287845        1.0771331018       16.5992053530
  C        12.5879912760        2.5037247804       17.8644888618
  H         6.7610796986        9.6599589507       15.9668840301
  C         6.3162773547        8.3810021329       17.4960170040
  H        14.1923501272        7.4422043554        5.7595255918
  H        14.7191105074        6.4336776104        4.3772688123
  C        15.3407249968        5.8523497043        6.5185284178
  H         6.5824142296        4.7698467930        2.1451601235
  H         6.7689257472        6.1229129956        3.2384816487
  C         7.0801497963        6.6555717621        1.0963709416
  N        11.1695631529       -0.8394663904        1.9729403142
  C        12.0248408288       -0.7524616028       -0.1722717862
  C        12.5228542950        1.3904136189       -1.3282445755
  H        12.1857808739        3.1879010081       -0.1606889284
  H        13.4012515499        2.3472142269       18.5589438510
  H        11.8074612971        1.7825218798       18.1342143274
  H        12.1313137770        3.5130700387       18.0026389427
  S         5.8889020662        6.8553893040       18.1977171886
  C         6.2945503826        9.4690288351       18.4910762093
  H        15.5862423262        6.6574603498        7.2936393369
  H        14.9087792321        5.0348375370        7.1406599281
  C        16.6455901609        5.3603855480        5.9281858674
  H         7.1393656634        6.2000414991        0.1317758898
  H         7.8223227030        7.4176488552        1.2109230399
  C         5.7399512362        7.3644284761        1.0533939496
  S        11.1714721436       -2.3840717983        1.4914754183
  N        11.8509092170       -2.1283893055        0.0157665146
  C        12.5616390326       -0.1255706762       -1.3720062723
  H        12.6797105920        1.9661365641       -2.1765742030
  C         5.7036734720        7.6636310032       19.7571736403
  N         5.8870284094        9.0175271728       19.7347966368
  O         6.4003297556       10.6406436094       18.2385142298
  H        16.5419239944        4.8310889554        4.9766067748
  H        17.1501346160        6.2503735232        5.6677629285
  C        17.5307141621        4.6160635046        6.9401430908
  H         5.7543687325        7.9063046033        0.1027352016
  H         4.9256527889        6.6745527617        0.9152537031
  C         5.4192929011        8.4823562572        2.0549807270
  C        12.6332610089       -0.8350837597       -2.6090908798
  S         5.3469798695        6.9591626588       21.3017721937
  C         5.8130418261        9.9819165347       20.9110059403
  H        16.9150465993        4.1878833362        7.7756709958
  H        18.0144119960        3.8208513067        6.3919856940
  C        18.5998121258        5.4369202568        7.6128477825
  H         6.2586873030        9.1153999150        2.0368191805
  H         5.3104233375        8.1558251057        3.1319044826
  C         4.1685369514        9.1341162336        1.5288831006
  H        12.3742880302       -1.9137307491       -2.4046127175
  C        13.1912972942       -0.5615251263       -3.8126280553
  H         4.9935921890        9.8020540083       21.5391328594
  H         5.6022803649       10.9801175227       20.6029069540
  C         7.2073388417        9.8218736720       21.6636347831
  H        18.9951516429        4.8913086614        8.4416940269
  H        18.1406978028        6.3734859879        7.8966066630
  C        19.7406670396        5.7814547487        6.6972025324
  H         4.4903424495        9.8886538622        0.8466940206
  H         3.5352499531        8.4175979225        0.9506378031
  C         3.3061064308        9.6747820291        2.6814913649
  S        13.8499831293        0.9527823169       -4.2620926042
  C        13.1642796404       -1.6051025315       -4.8500973805
  H         7.9627329343        9.3216961770       21.0126346073
  H         7.0853026216        9.3165229485       22.5959846468
  H         7.7044945440       10.7702274641       21.8867320443
  H        19.5383010302        6.5022380015        5.8442652012
  H        20.6069054046        6.1470256014        7.2472183280
  H        20.0555308292        4.8693709506        6.2841087508
  H         2.6904048995        8.8893185059        3.1193779180
  H         3.8801958957       10.1670246334        3.4806255453
  H         2.6574382344       10.4514223157        2.1967720838
  C        14.1189771216        0.1600629213       -5.8431025931
  N        13.8316563099       -1.1952074745       -5.9041059745
  O        12.6653476728       -2.7091485361       -4.7113475834
  S        15.1583468621        0.8737074670       -7.0895331586
  C        13.9034844816       -1.9459090282       -7.1378678419
  H        14.1145301774       -2.9753259059       -7.0225742261
  H        14.7132301653       -1.6413385225       -7.7276323740
  C        12.6637594238       -1.8527028185       -7.9782302030
  H        12.7053005397       -0.8655417613       -8.6289138773
  H        11.6628447662       -1.9285099736       -7.5324437329
  H        12.6299107381       -2.6913296580       -8.6787022319
  H        -1.1452075278       13.5427795786       17.5141473328
  C        -1.8064439585       14.3117941608       17.0005921316
  H        -1.1576412204       15.0396548242       16.5005171515
  C        -2.6183428689       14.8792698024       18.1253272297
  C        -2.6999253168       13.6492974324       15.9584409516
  C        -3.3231161890       13.9191840214       19.0725757862
  H        -1.9860135455       15.6566349652       18.6008246360
  H        -3.3852047639       15.4995250022       17.6406377331
  H        -2.4105390976       12.6451185764       15.5736145515
  H        -3.7401049173       13.6684392785       16.2728349984
  H        -2.7171142276       14.3180748145       15.1106592503
  C        -2.3245684661       13.3221006632       20.0511381748
  H        -3.8226613225       13.0435683517       18.5253245546
  H        -4.0502472665       14.3602918776       19.7410769037
  C        -2.8433289282       13.2796249473       21.4834464248
  H        -2.0415365724       12.3496674454       19.6740499806
  H        -1.4204210314       13.9191503181       20.1040937503
  C        -1.8688073119       12.8450549564       22.5401099562
  H        -3.7809270923       12.6170272364       21.5990254622
  H        -3.1819759298       14.2910012350       21.6922954343
  C        -0.5445867375       13.6568581819       22.6736638443
  H        -2.3502748051       12.8511310566       23.4595924934
  H        -1.6940293128       11.7745185353       22.3667380243
  C         0.5681982658       12.8735938643       23.3472002276
  H        -0.1703187356       14.0267405653       21.6449355414
  H        -0.6427462087       14.5965871853       23.1941238212
  C         0.9687098420       11.6478899539       22.5766600683
  C         0.2171425741       12.2118646816       24.5937819586
  C         1.7563437664       13.8104028190       23.4790048945
  C         0.8822976982       10.5582611270       23.4129618886
  C         1.5876684228       11.3336872087       21.3313869240
  C         0.4154858843       10.8615061631       24.6777231163
  C        -0.2989470130       12.7429420082       25.7423310945
  H         1.7152003178       14.4733598779       22.5666879824
  H         1.5815089924       14.4995403193       24.3591574141
  C         3.1499547577       13.2289212204       23.8158635122
  S         1.5914371913        9.0997043116       22.7336122583
  C         1.9024642627        9.9674768254       21.2551577544
  H         1.7459579064       12.1598152091       20.6717954627
  C         0.0786451906       10.1882760999       25.8278875412
  H        -0.3383254258       13.8202780607       25.6536438902
  C        -0.6529832438       12.1756014304       26.8952411048
  H         3.5502885155       12.4525066430       23.1323104420
  H         3.0749305193       12.7493159637       24.8293425855
  C         4.1523823965       14.3563481384       23.8818812932
  C         2.3895843124        9.3090468546       19.9735173150
  C        -0.4567962480       10.8399200015       26.9990174867
  H         0.2138273721        9.1174022300       25.8163538087
  C        -1.0352119902       12.5290100712       28.1775936402
  H         4.9765268016       14.0061201454       24.5219955002
  H         3.6726348823       15.2516639645       24.3746162466
  C         4.6091488418       14.7638463682       22.4270661301
  C         2.4846936567        7.9050833390       19.8082465436
  C         2.8276881219       10.1683030662       18.8842795419
  C        -0.8858485225       10.1245209908       28.2285649478
  C        -1.2113782815       11.4342865903       28.9569515264
  S        -1.4595009673       14.0738274990       28.9393513676
  H         5.0001689493       15.7823111371       22.4410214829
  H         3.6646443957       14.8260012962       21.8570987842
  C         5.5438605148       13.7688094223       21.7775112413
  N         2.1833825545        6.9281836395       20.7332217888
  C         2.5572706361        7.4528785195       18.5254424033
  C         3.1577608524        9.6205496153       17.6108571781
  H         2.9652710665       11.2226110527       18.9666165733
  C         0.2492866226        9.2796494646       28.8119233189
  C        -2.1678228250        9.2892033516       28.0052585572
  C        -1.6094798379       11.8283529524       30.2911852958
  C        -1.7741884030       13.1926424813       30.3898818476
  H         6.5805420442       14.0941084665       22.0421870258
  H         5.4669662969       12.7937766150       22.2669222063
  C         5.4099632644       13.7889921498       20.2528141585
  S         2.1807956311        5.4814608921       19.9140497482
  N         2.4926187079        6.1255942047       18.4287546709
  C         2.9473437865        8.2366032656       17.3869232990
  H         3.4824479960       10.2903847073       16.8153917632
  H         0.7024165171        8.8290219331       27.8822111798
  H        -0.1702283392        8.4455474418       29.4838160504
  C         1.3206166283       10.0872137544       29.5403619464
  H        -2.0646529564        8.4812982593       27.2890834719
  H        -2.3855755758        8.9583481508       28.9640902617
  C        -3.4228847431       10.1309093771       27.7169396873
  H        -1.6959451337       11.0922470488       31.0431539227
  C        -2.1434906162       13.9128733972       31.7064101854
  H         5.1491902024       14.7801609084       19.8941863763
  H         4.7175690973       13.0521944097       19.7907480950
  C         6.8051283292       13.5648480222       19.6146594791
  C         3.2852478152        7.5868362957       16.1534713301
  H         1.7493017323       10.7672162633       28.8192668690
  H         0.8574335747       10.7157296777       30.3127427417
  C         2.3394625840        9.2159336445       30.1891530725
  H        -3.2574912007       10.9091088927       26.9886644675
  H        -3.7152922385       10.7626314429       28.5969814031
  C        -4.6947398539        9.3193476212       27.4896072798
  C        -2.1600289777       15.3037066577       31.8718784224
  C        -2.5297545706       13.0808391189       32.9233677050
  H         7.4976662330       14.3114903520       20.0318583905
  H         7.0836405953       12.5431926485       19.8439213598
  C         6.7070098429       13.7583668480       18.1277679344
  H         3.2726013179        6.4697406013       16.1311360308
  C         3.5757753620        7.9720155790       14.8543343445
  H         2.8886458374        8.8383918417       29.3024340245
  H         1.8880637067        8.3321656338       30.6873514095
  C         3.3282802704        9.9644014951       31.2281311739
  H        -4.4742756315        8.3431323169       27.0439348179
  H        -4.8592781990        8.9324316891       28.5309841301
  C        -6.0260003437       10.0527743538       27.0813022617
  N        -1.8799008723       16.2722245691       30.9449264795
  C        -2.4961086224       15.8362760677       33.1124577379
  C        -2.7747640996       13.7013800498       34.1758113498
  H        -2.5212788628       12.0344367649       32.8936438890
  H         7.0042101551       14.7496549253       17.9124939704
  H         7.2377078711       13.0085573423       17.4368911663
  H         5.6842169159       13.7111232667       17.7599577400
  S         3.8770868780        9.6237179855       14.2774395464
  C         3.7188961572        6.9455398017       13.7707539992
  H         3.3396941240       11.0785942074       31.1444681008
  H         2.8998474997        9.7283972743       32.1791751997
  C         4.8510965616        9.5578590215       31.1905545156
  H        -6.1490113478       10.9616191670       27.5869169234
  H        -6.8980906594        9.4260258536       27.0891697725
  C        -5.9816492983       10.2223246069       25.5497065422
  S        -1.9281458676       17.7582369432       31.6259218954
  N        -2.4507453599       17.2792485792       33.0736716254
  C        -2.8033530797       15.1469811406       34.2945031582
  H        -2.9816830297       13.1513292757       35.0250211756
  C         4.0161187741        8.9381873577       12.6558026765
  N         4.0764740124        7.5696944584       12.5737056570
  O         3.7866869318        5.7416626109       13.9941115657
  H         5.6337766961       10.0912243001       31.7936320449
  H         5.1976300692        9.7682225351       30.2259485316
  C         5.1534198999        8.0826681803       31.4657414750
  H        -5.0724500071       10.7135991495       25.1263761339
  H        -6.0224660089        9.3050049009       24.9429923037
  C        -7.0947872308       11.1188598655       25.0800599707
  C        -2.9839862922       15.9651910383       35.4529733070
  S         4.3578865025        9.8939146303       11.2497619499
  C         4.1869557439        6.8866958335       11.3262926279
  H         5.5488648874        8.1355419326       32.5115693514
  H         4.3017618852        7.4416535831       31.6946484927
  C         6.0687003025        7.3538861138       30.5250204183
  H        -6.8875379307       11.3574436887       24.0688651927
  H        -7.0807596713       12.0844477693       25.5577995074
  C        -8.4287274782       10.3329613205       25.3027012077
  H        -2.4856400617       16.9262316355       35.3938862435
  C        -3.6277760844       15.6341155184       36.6317803803
  H         5.0338496679        7.2903496277       10.8069646943
  H         4.5529630775        5.8864226890       11.4635663575
  C         2.9691189579        6.9086302828       10.5189142196
  H         7.0761043106        7.7813853696       30.5071473407
  H         5.8424724304        7.3962060193       29.4212307263
  C         6.2371228044        5.9204492673       31.0106052021
  H        -9.0875904684       10.7368530941       24.5727373119
  H        -8.2529098579        9.2464329075       25.2204774464
  C        -9.2067958046       10.5091292193       26.5363680319
  S        -4.2785703163       14.0506694870       37.1181298631
  C        -3.6687851210       16.6753615013       37.6665746297
  H         2.2474586518        7.5745062270       11.0686608912
  H         3.2048480467        7.5566657078        9.6274744832
  H         2.6820460169        5.8450738744       10.2422149152
  H         6.9787901475        5.8493754392       31.8191676558
  H         6.8050803510        5.4764594257       30.1785135016
  H         5.2538655548        5.3237163792       31.1088906225
  H        -8.7102210624       11.1697652132       27.2370978334
  H        -9.5375516580        9.6039739343       27.0338093656
  H       -10.1288897103       10.8922869437       26.1851375746
  C        -4.6569665675       14.8788549568       38.6831943485
  N        -4.3311237430       16.2111634130       38.6998291020
  O        -3.2442320092       17.8255167354       37.5238449799
  S        -5.3786049688       14.1645099616       40.1336665377
  C        -4.4168845062       16.9705079322       39.9123567685
  H        -4.4902510242       18.0445997992       39.7468182913
  H        -5.3910976276       16.8011827747       40.4152240407
  C        -3.2496719827       16.7538170940       40.8231161460
  H        -3.0587282779       15.7104172604       41.0216724287
  H        -2.2976089439       17.1328232109       40.3562185429
  H        -3.4562068321       17.3418503665       41.7030364709
