352
i=
  H         4.6317123640        1.6725310766       12.3506113671
  C         3.8826801539        2.4673937813       12.3526355843
  H         4.4902373859        3.4056269340       12.3125187980
  C         3.1086578325        2.3294362159       11.0099334572
  C         3.0784608755        2.5818242525       13.6563590291
  C         3.8832773771        2.7222738699        9.7121587459
  H         2.2794569490        3.0557739161       11.1217286836
  H         2.6632038366        1.2872190949       11.0429165979
  H         2.6101549209        1.6184925563       13.8684995086
  H         2.3373960243        3.3296166609       13.5122520860
  H         3.7737738202        3.0118690946       14.3960136209
  C         4.6813722387        1.5165500274        9.0295847294
  H         3.2300079841        3.0284679540        9.0029707943
  H         4.4911698229        3.5915911289        9.6617220133
  C         5.5440871460        1.9190986782        7.8692962151
  H         3.9646429769        0.7563682199        8.6682400286
  H         5.3597144988        1.0697549581        9.7505338687
  C         6.7760491070        2.7708448043        8.2744893478
  H         4.9670920456        2.5482434088        7.2742186920
  H         5.9255450813        1.0480008734        7.2351451890
  C         7.9287221225        2.0141828528        8.8696827558
  H         7.1723220707        3.2535250502        7.3748814380
  H         6.5149783451        3.6160908290        8.8807529268
  C         9.2171649905        2.8477671177        9.0806608062
  H         8.1950889677        1.1808869740        8.2248789258
  H         7.5972555634        1.5259778116        9.8272491272
  C         8.8667082527        4.1771832471        9.7419706149
  C         9.6723942142        3.5138444048        7.8109968168
  C        10.3469529811        2.0918195918        9.7352263598
  C         9.0596728165        5.2850324955        8.9307088372
  C         8.4104061041        4.5250064875       10.9899425667
  C         9.5797631603        4.8708950277        7.6916487587
  C        10.0828216414        2.9027353068        6.6145425072
  H         9.9384875271        2.0231676475       10.8036965601
  H        10.4704150906        1.0424820838        9.2912505990
  C        11.6882422281        2.9075192339        9.8895718046
  S         8.5378725830        6.7715011393        9.6789342499
  C         8.1398980364        5.8568100660       11.0706087626
  H         8.2470973517        3.7740054069       11.7307489102
  C         9.9613074246        5.5006076430        6.5398204933
  H        10.1360479589        1.8445534583        6.5708580597
  C        10.4910922609        3.5730230810        5.4673538169
  H        11.4933342239        3.9559907331       10.0941245023
  H        12.0734339228        2.8450835315        8.9077545162
  C        12.5580735215        2.1694983485       10.9830694846
  C         7.6177517077        6.5846828783       12.2229044260
  C        10.4131103831        4.8673491274        5.3525238515
  H         9.8018877256        6.5414512313        6.4608126288
  C        11.0047369247        3.2236950132        4.2364275349
  H        13.6122432890        2.2718759827       10.7643140374
  H        12.2987581049        1.1317024502       10.9843970435
  C        12.1506840476        2.5757834988       12.3812437637
  C         7.6822206206        7.9896540531       12.5000033381
  C         7.1754884881        5.7897635823       13.3515331663
  C        10.8234594985        5.5999121833        4.1349115590
  C        11.0836910418        4.2693930462        3.3549369599
  S        11.3629608585        1.7023684235        3.4868999573
  H        11.9388420791        3.6122854143       12.2989832496
  H        11.2956596306        2.0204173750       12.7040886702
  C        13.3490790919        2.5128198541       13.3000859565
  N         8.1320941932        8.9526558398       11.6143939320
  C         7.3603953699        8.5529853994       13.7264037638
  C         6.9440012416        6.3073778204       14.6428750693
  H         7.0661382933        4.7366450033       13.1284230225
  C        12.1464214682        6.3107634135        4.4857157750
  C         9.8150966227        6.3764431430        3.3105364091
  C        11.3980324369        3.8888702805        2.0530899541
  C        11.5811764257        2.5211972001        2.0053430858
  H        13.7422744642        3.5087612089       13.5120536534
  H        14.2029224475        1.9825386330       12.8382868881
  C        13.0455879324        1.7103481148       14.5567300127
  S         8.0077846704       10.3799886783       12.2840563062
  N         7.4965979042        9.9295897568       13.7271630275
  C         7.0373604493        7.7821364161       14.8872624825
  H         6.5080165629        5.6813709402       15.4083696923
  H        12.0092328502        7.0468394980        5.2513892580
  H        12.5043971479        6.7599675640        3.5518347363
  C        13.3275709009        5.4842564765        4.9738280201
  H         9.5852776450        7.2830833532        3.8512942602
  H        10.3876107332        6.7491785534        2.5037597891
  C         8.6582990408        5.4961309394        2.8990963582
  H        11.6497586797        4.5784271305        1.2373865279
  C        12.0663511058        1.6956489770        0.8347347579
  H        12.3876684577        0.9175632200       14.3163779270
  H        13.9614357556        1.3316046308       14.9918169571
  C        12.4391354928        2.6771004862       15.5915981514
  C         6.8057495303        8.3572601414       16.1437429360
  H        13.0509454654        5.0156831133        5.9231756733
  H        13.7192785931        4.5680349842        4.3946616675
  C        14.5039299140        6.4303728579        5.3255272856
  H         8.3318926212        4.9142251156        3.7471468261
  H         9.0010397497        4.8408321537        2.0605668828
  C         7.4900921254        6.4173766887        2.4822725207
  C        12.1837197706        0.3165309856        0.5919471783
  C        12.2317939572        2.5351561052       -0.3978584211
  H        11.5057657951        3.0703393839       15.1627861911
  H        13.1520503286        3.5310146796       15.8200723939
  C        12.1276916580        2.0061562492       16.9204431042
  H         6.9095097867        9.4238132371       16.1722915823
  C         6.4944435551        7.8814267022       17.3729994064
  H        14.3321855055        7.0107736996        6.2283877863
  H        14.5584746323        7.0053306185        4.3752698493
  C        15.7740973538        5.5765170444        5.5984612762
  H         7.2418552755        7.0627663002        3.3390377590
  H         7.8082901095        7.0297880302        1.7221670354
  C         6.3941037511        5.4465168328        2.0628591638
  N        11.9105999085       -0.7286602412        1.5449936131
  C        12.3535195821       -0.2860847104       -0.6315812406
  C        12.6042497312        2.0136435762       -1.6345117675
  H        12.2418169292        3.6291033830       -0.3077901747
  H        12.7615446380        1.1728956301       17.2261432216
  H        11.0741039999        1.7625511429       16.8371697925
  H        12.1597704092        2.8126507356       17.6337399728
  S         6.2236443764        6.2637495336       17.7803498066
  C         6.4624658177        8.8512037181       18.4549694506
  H        15.6114618808        4.7437570755        6.2546787527
  H        16.2079392623        5.2814254945        4.6387736635
  C        16.8161586632        6.4898578062        6.1798929038
  H         6.0012131850        5.0151043998        2.9870764030
  H         6.8410245518        4.6121101874        1.4829014135
  C         5.2543038777        6.2341005040        1.3704580949
  S        11.9665536603       -2.1796992712        0.8420666699
  N        12.3051693200       -1.7010191443       -0.6492804053
  C        12.6180105493        0.5171369350       -1.8250787682
  H        12.8018815595        2.7360916616       -2.4185199143
  C         5.8947144932        6.9136296691       19.3824470431
  N         6.0201992229        8.2531175359       19.5770988719
  O         6.6793879833       10.0593156931       18.3280081434
  H        16.9322236752        7.2397995134        5.4554437614
  H        16.4932530905        7.1585650663        6.9874593571
  C        18.0171997318        5.5864907830        6.5533480660
  H         5.7032417736        6.8493307076        0.6043312765
  H         4.5996451449        5.4994022797        0.8311060313
  C         4.3578029133        7.0851222720        2.2526853309
  C        12.7520088193       -0.0458682901       -3.0907940984
  S         5.6517522525        5.8627636188       20.7914991851
  C         5.8871267603        8.9236326873       20.8338355223
  H        17.7962602720        5.2033800624        7.5891495192
  H        18.0545201227        4.7407303556        5.9983993142
  C        19.3748807280        6.2189506224        6.5609941747
  H         4.7761072073        7.7413849124        3.0630566105
  H         3.6405986440        6.3894158370        2.7875849081
  C         3.5963968701        8.1431889875        1.4672897135
  H        12.4837529143       -1.0697681689       -3.0882279645
  C        13.2600890080        0.4015505865       -4.2966767925
  H         5.4525457278        8.2611172190       21.6144393631
  H         5.1490704879        9.7358622042       20.8465456284
  C         7.2442407154        9.4341794474       21.4111563174
  H        20.1009992781        5.4364169985        6.8512792912
  H        19.4891358327        6.9379882295        7.4189776495
  C        19.8452018848        6.7855953396        5.1854998945
  H         3.6273911487        7.8496100936        0.4402704339
  H         2.5869910958        8.2396216220        1.8723166329
  C         4.1539563032        9.5350602851        1.6592786043
  S        13.8670851892        2.0311300939       -4.5702165820
  C        13.2948624268       -0.5208094103       -5.4296737606
  H         7.8769262015        8.6280547383       21.7774082603
  H         6.9855514799       10.0771615847       22.2292722830
  H         7.7710519039        9.9357847623       20.6421575062
  H        19.8074109719        6.0228069461        4.3898017630
  H        19.0471405026        7.4558550884        4.8543304862
  H        20.8911995878        7.1254116221        5.1978240480
  H         4.1962293146        9.7440373204        2.7331584571
  H         5.1581154297        9.7004530015        1.2802814983
  H         3.4627672842       10.2799262128        1.1657262657
  C        14.1403969582        1.4572326684       -6.2728516853
  N        13.9292950944        0.0997715927       -6.4712834812
  O        12.8671904096       -1.6211641574       -5.4168148894
  S        15.1519511275        2.2731961550       -7.4159238665
  C        14.2258526994       -0.6005762829       -7.6582206648
  H        14.5654212661       -1.6297864876       -7.3237662310
  H        15.0090133798       -0.2912837959       -8.3084733452
  C        12.9799396335       -0.5767355891       -8.4605203004
  H        12.9327861945        0.3050602396       -9.0523566227
  H        12.0426550756       -0.6660320484       -7.9869380904
  H        12.9812999870       -1.4179141263       -9.1142819227
  H        -3.5483863417       14.5514478113       15.8924338410
  C        -2.6635995191       13.9017434642       16.0119046788
  H        -3.1883427468       12.9492692809       16.2482892258
  C        -1.7830047768       14.0473567108       17.2320523423
  C        -1.8942043732       13.9004370130       14.6955026160
  C        -2.5673538277       13.9907021489       18.6283867671
  H        -1.0273529842       13.2564511273       17.2546289693
  H        -1.2830313799       14.9743658142       17.2079770695
  H        -2.4591297292       14.5326485212       14.1075915110
  H        -0.9195320641       14.3857454184       14.8095646110
  H        -1.7193195468       12.8873311151       14.3245329672
  C        -1.8851311322       13.1636829629       19.6757053277
  H        -3.5611831695       13.7061849801       18.4624902804
  H        -2.6642525733       15.0442197089       18.9561952680
  C        -2.3494845108       13.4556277357       21.1881219533
  H        -2.0116022218       12.1423181636       19.4149121570
  H        -0.8187559293       13.3646922485       19.5594157219
  C        -1.4309551864       12.8409749369       22.2249096883
  H        -3.3303843788       13.1047642203       21.2329842087
  H        -2.5198089383       14.5279832057       21.3783203733
  C        -0.1504452702       13.7019205517       22.4073917450
  H        -1.9798141076       12.7896732465       23.1388418143
  H        -1.1042086174       11.8297507619       21.9254481397
  C         0.9825407852       12.9367315992       23.1513378468
  H         0.1404483732       14.0602745778       21.3895209017
  H        -0.2978110673       14.6019950494       23.0395010985
  C         1.4151655176       11.5713605543       22.5428839529
  C         0.6174904530       12.2637936834       24.4051884432
  C         2.1858710044       13.9365921128       23.4442716361
  C         1.0390407399       10.4512701505       23.2827186322
  C         1.9415572499       11.2811288192       21.2742760286
  C         0.5193404533       10.9137014501       24.5026830373
  C         0.1389205456       12.8099683735       25.5731163567
  H         2.2682406254       14.6697612786       22.6654688645
  H         1.9692791175       14.5411435419       24.3139320106
  C         3.5520949015       13.2573628663       23.6133511320
  S         1.4568550512        8.9668855182       22.5339981578
  C         1.9707950327        9.9535301807       21.1282387905
  H         2.1246057424       12.0914456412       20.5661930999
  C         0.1102863171       10.2591332795       25.6304345641
  H         0.0528216578       13.8975225207       25.6361445856
  C        -0.1669579577       12.2210207721       26.7355919191
  H         3.6867590180       12.3240947511       23.0479506392
  H         3.5281799743       12.9369801431       24.6345872790
  C         4.6434082296       14.2110983055       23.4268908639
  C         2.4819259619        9.2113095982       19.9343792058
  C        -0.2317925620       10.9048113399       26.8537216885
  H        -0.0650305392        9.1766831679       25.5956121865
  C        -0.6346039653       12.6754248554       27.9717946877
  H         5.5871283684       13.8625584369       23.8102266558
  H         4.5281857673       15.0551791340       24.1314937354
  C         5.0029133236       14.5527755134       22.0408126614
  C         2.5386714857        7.8117636751       19.7700735937
  C         2.9841924153       10.0539515226       18.7993518232
  C        -0.7205655841       10.2823564851       28.1249647921
  C        -0.9611743703       11.6129615162       28.8070181308
  S        -0.9390353251       14.2118096256       28.7099707788
  H         5.9230462278       15.1821959353       22.1201363706
  H         4.2232196162       15.1764211319       21.5922946155
  C         5.3711900807       13.3102405278       21.1720385282
  N         2.2444175835        6.8964550929       20.7670906992
  C         2.8269651995        7.2688999888       18.5278417172
  C         3.4134112051        9.4577257730       17.6405333539
  H         3.2059356813       11.0988181943       18.9006349379
  C         0.4456341208        9.4548704692       28.8459192786
  C        -2.0594350114        9.4599288238       27.9469308310
  C        -1.3341844180       12.0522124658       30.0888942122
  C        -1.3066899004       13.4125456517       30.1760497641
  H         6.3262962669       12.8896599641       21.5715789024
  H         4.6603933387       12.5555196590       21.1386745568
  C         5.6201879547       13.7992319843       19.8067823577
  S         2.3714992296        5.3540055287       20.1434156449
  N         2.6143403415        5.8466142266       18.5747132150
  C         3.2243397069        8.0109727195       17.3557558237
  H         3.8798566530       10.1403986555       16.9233381187
  H         0.9650124668        8.7599209290       28.2311624778
  H         0.0084304186        8.8746030423       29.6973075506
  C         1.5985145485       10.2809211890       29.4080443935
  H        -1.8741708870        8.6496511757       27.3356059430
  H        -2.4786734309        9.0750211943       28.8907772554
  C        -3.1699996066       10.2001139427       27.0904055528
  H        -1.4383764243       11.3476205107       30.9123905001
  C        -1.6292545435       14.2197270843       31.3791043631
  H         5.2534121781       14.7722451799       19.4937379285
  H         5.1766824087       13.1295847448       19.0731259140
  C         7.1348800136       13.6650740384       19.5243998888
  C         3.4524067584        7.3009474992       16.1491794493
  H         1.8957677655       11.0075097446       28.6084522432
  H         1.2077360436       10.8328890738       30.2987509030
  C         2.7983344056        9.4613573456       29.9045610396
  H        -2.7597122686       10.6106000860       26.1514839904
  H        -3.4755505414       10.9994765145       27.8109939788
  C        -4.3862044777        9.2957580590       26.7834840412
  C        -1.6671965844       15.5753455322       31.5134067514
  C        -1.6363657733       13.5272494887       32.6760258413
  H         7.6513211575       14.4805767261       19.9821918372
  H         7.5872482051       12.7650163028       19.9406792286
  C         7.5297901443       13.6498705077       18.0295735547
  H         3.3257619351        6.2223487461       16.3174249395
  C         3.6924624840        7.7156680914       14.8610136973
  H         2.9851427572        8.6959162046       29.0663590133
  H         2.5063898181        8.9944354599       30.8790269254
  C         4.1534226605       10.2443924623       30.0376521883
  H        -4.0993341429        8.5638296163       26.0498510549
  H        -4.6518350067        8.7008345557       27.6766320985
  C        -5.5877453184       10.0431843531       26.3813476216
  N        -1.4092483299       16.4704880112       30.4268221185
  C        -1.8956175617       16.2432036018       32.6986130411
  C        -1.9585099171       14.1678791649       33.8524557503
  H        -1.3079275766       12.5093886829       32.6847964532
  H         8.6142741098       13.9548766337       18.0793375556
  H         7.4930588151       12.6389324531       17.5481332776
  H         7.1330804995       14.4238426535       17.3788724669
  S         3.8701539727        9.3459074231       14.3704456568
  C         3.8343223557        6.7448114760       13.7436306352
  H         3.9933906037       11.1591090314       29.4958472582
  H         4.2793661759       10.5968522046       31.0741238197
  C         5.4322423562        9.4486834149       29.6844901480
  H        -5.6137619182       11.0469790756       26.8252556261
  H        -6.4686054744        9.5316494692       26.8020102661
  C        -5.7914569077       10.1207162307       24.8786841055
  S        -1.6085190227       17.9996402098       30.9896441779
  N        -2.0255606499       17.6167305429       32.5657073664
  C        -2.1254625738       15.6566224336       33.9431104821
  H        -2.1015000669       13.6296491196       34.7096191002
  C         4.1632855218        8.7450774621       12.7632024160
  N         4.1353569137        7.4187658233       12.6159836305
  O         3.6578886686        5.5149571944       13.8588198311
  H         6.2472386177       10.1559529226       29.5989291125
  H         5.3262082301        8.9383821984       28.7032636512
  C         5.8562884925        8.4794753490       30.8088023743
  H        -5.0159638296       10.7095028446       24.5005508520
  H        -5.8918440452        9.1649321262       24.4246075349
  C        -6.9924392636       10.9855227531       24.5672606933
  C        -2.5374521113       16.3791396562       35.1071579057
  S         4.4348198657        9.7942929914       11.3978225770
  C         4.0915263198        6.8575896553       11.2733326919
  H         6.9208649506        8.2790052375       30.6649066108
  H         5.7155357086        8.9607557552       31.7871439001
  C         5.0160313990        7.1732785555       30.7155545315
  H        -6.9140568540       11.3673543679       23.5715481476
  H        -6.9633607091       11.7327658922       25.2915811387
  C        -8.3346511396       10.2654978858       24.7527835898
  H        -2.4379211516       17.4388119683       34.9241290897
  C        -2.9993254646       16.1002873203       36.3711085371
  H         4.9062757384        7.1944235886       10.5936930269
  H         4.3885692022        5.8030136720       11.3364400103
  C         2.6778559819        6.9558407242       10.6690109494
  H         4.9777585767        6.8550656370       29.7273245585
  H         4.0206796016        7.3879862522       31.0559163189
  C         5.5765811464        6.0853940135       31.6436843628
  H        -9.0180247827       10.9420157616       24.3999444665
  H        -8.3368781786        9.5246130205       23.9304307823
  C        -8.8389943455        9.8604843675       26.1231105366
  S        -3.5578653205       14.5631477197       37.0590308953
  C        -3.1425444016       17.2033002080       37.2931800272
  H         2.4176328403        8.0084205306       10.4532666253
  H         2.6407629350        6.3007958106        9.8376423841
  H         1.8761098092        6.5896955597       11.3618227678
  H         5.6058185746        6.3487644400       32.7493995233
  H         6.5952081796        5.8744598272       31.4071202862
  H         4.9535400110        5.2381020317       31.6117788634
  H        -8.6782155279       10.6196342437       26.9345492088
  H        -8.5058012764        8.9367089177       26.5099571836
  H        -9.8823516067        9.6286167703       26.0321792002
  C        -3.9851126099       15.4634547469       38.5260553102
  N        -3.7803007875       16.8236919537       38.4174803132
  O        -2.7951267996       18.3822675227       37.0791421115
  S        -4.9885399336       14.9006694909       39.8752524121
  C        -4.0390177689       17.7172675587       39.4975682188
  H        -4.4821188407       18.5543647959       39.0784350290
  H        -4.8124689694       17.3894386227       40.2616081976
  C        -2.7046173309       18.2269928525       40.1869025953
  H        -2.1489477241       18.9346078679       39.6156334784
  H        -3.0022136159       18.7956639343       41.0677835428
  H        -2.1076819134       17.4409787531       40.4364189626
