352
i=
  H         4.2926116452        1.1987551083       12.7754286484
  C         3.7312831830        2.1214290640       12.8383692260
  H         4.4439956910        2.8036712606       13.2909466906
  C         3.1955743995        2.5827532751       11.4792635885
  C         2.5967951100        2.0837280103       13.9167776842
  C         4.3359707340        2.8655049014       10.5452174435
  H         2.5452943100        3.4160211604       11.5075407266
  H         2.6465559200        1.6731933826       11.1532745634
  H         1.8642414476        1.3023247050       13.8597363802
  H         2.0985674574        2.9793924245       13.7373843232
  H         3.0180474352        2.0820247330       14.8810716572
  C         4.8165422483        1.6636517239        9.7008673584
  H         3.8873219109        3.5948591981        9.8420303240
  H         5.1350296635        3.2935274364       11.1369878291
  C         5.5939839846        2.0606855745        8.3710336227
  H         3.8637493136        1.1720690783        9.4537680613
  H         5.3833730133        0.9596576393       10.3671801615
  C         6.8940887325        2.8540052734        8.5948513852
  H         5.0522395596        2.5237247307        7.5834704863
  H         5.8188820091        1.1422661653        7.8485432674
  C         7.8836375692        2.0470109605        9.5309016221
  H         7.2541265627        2.8566930161        7.6220649545
  H         6.6921774339        3.8785691348        8.9048642490
  C         9.1944760492        2.8944378084        9.6746597248
  H         8.1948578839        1.1175300366        9.0321879453
  H         7.5033599778        1.9001400414       10.5477833076
  C         8.8734623211        4.2139439848       10.3176655234
  C         9.6425912172        3.5689720272        8.3835080342
  C        10.3238882596        2.0857738508       10.2923256813
  C         8.9671502825        5.2600531674        9.4276572513
  C         8.3295899301        4.6946597003       11.5364086062
  C         9.5532299060        4.8964076642        8.2495567169
  C        10.0861356307        2.9113705178        7.2600266680
  H         9.9995375045        1.3789654500       11.0213007862
  H        10.6458183243        1.3560622253        9.5604804581
  C        11.5596979638        2.9257963430       10.7197629151
  S         8.5530237970        6.8230867956       10.0487010749
  C         8.1932677509        6.0652662840       11.5972602511
  H         8.1357453998        3.9356225042       12.2556183267
  C         9.9480097268        5.5565193334        7.1554271438
  H        10.1516667686        1.8742796362        7.2936558146
  C        10.4315597217        3.5015267234        6.1120183109
  H        11.2952078738        3.8545613047       11.1162345798
  H        12.1860888917        3.0626596807        9.8721902897
  C        12.4914488531        2.2342835722       11.6881554336
  C         7.6188848525        6.7456494801       12.8310959965
  C        10.4072737678        4.8789500730        5.9852875589
  H        10.0147906996        6.6391976875        7.1635467829
  C        10.8110393598        3.0872576563        4.8860098139
  H        13.4820167746        2.7240653885       11.4872322880
  H        12.5193144355        1.2397803450       11.2292278568
  C        11.8747085859        2.2122482481       13.0552605519
  C         7.6766276088        8.1520105522       13.0165857672
  C         7.0324708423        5.9464939127       13.9350819795
  C        10.7910579066        5.5216330599        4.6916524302
  C        11.0466967923        4.1242155370        4.0487598766
  S        10.9767158522        1.5284833093        4.0685572399
  H        11.5047295736        3.2149239748       13.2674516744
  H        11.0222574102        1.5177537735       13.1936484143
  C        12.9065265821        1.9142232892       14.1369156550
  N         8.1014566207        9.0479993908       12.0412157926
  C         7.4039994449        8.7195926170       14.2186537089
  C         6.7238107025        6.5468693111       15.1855793139
  H         6.8632594592        4.9011622595       13.7813084937
  C        12.1361811920        6.2600997051        4.9321644256
  C         9.7308545041        6.4197813714        4.0039383943
  C        11.4975079736        3.7234263346        2.8021681346
  C        11.4570476419        2.3468984127        2.6789896955
  H        13.7181550502        2.6156231854       14.0294853642
  H        13.2379535589        0.9104094758       13.9771343067
  C        12.3015160321        2.1634343018       15.4968044718
  S         7.8320781595       10.4931617888       12.6282321317
  N         7.2444818947       10.0511069847       14.0791670002
  C         6.9522173139        7.9818063995       15.3705494819
  H         6.4548573225        5.8960967588       15.9967595758
  H        11.8884270668        7.1686769547        5.3989022487
  H        12.5726107849        6.6183612427        3.9455862320
  C        13.1913106294        5.5821246972        5.7546701031
  H         9.2621649351        7.1954147724        4.7105875027
  H        10.0654295135        6.9067392402        3.1114135476
  C         8.5943336322        5.5845764635        3.4460805996
  H        11.5887756030        4.5333113735        2.0467608746
  C        11.6338404989        1.5699350482        1.3863243461
  H        11.7705117803        3.1376708649       15.5684232867
  H        11.4553399685        1.4488223678       15.7038315767
  C        13.3250307009        1.9927396867       16.6337792492
  C         6.7009583973        8.6848368201       16.6147279723
  H        12.8938913308        5.4863851059        6.7814013352
  H        13.3252057019        4.6113982506        5.3062169436
  C        14.4234245570        6.3618285235        5.7866621989
  H         8.1718736818        5.1587970113        4.3699006525
  H         8.8642240998        4.7802825136        2.8033484829
  C         7.5299942952        6.5242187542        2.7552707244
  C        11.7597400816        0.1497420057        1.2347213190
  C        11.6566950203        2.2601299434        0.1217571866
  H        14.3588463778        2.4412550065       16.3132049785
  H        13.4491733955        0.9396009098       16.7999082766
  C        12.8459930387        2.8034082919       17.8449644073
  H         6.6478761370        9.8107412936       16.5359300701
  C         6.3805276974        8.1969863393       17.8756115918
  H        14.1986557992        7.2322525937        6.2603451502
  H        14.8296949643        6.5758768562        4.7822615541
  C        15.4659420341        5.7468495516        6.6312590298
  H         7.2697927841        7.3979627721        3.3163112289
  H         7.9903531883        6.7662095015        1.8061417172
  C         6.2031928663        5.7132382902        2.5335967425
  N        11.6949301190       -0.7796482086        2.2695280443
  C        12.2002250223       -0.4957177892        0.0288920667
  C        12.0781232424        1.6481555656       -1.0378527170
  H        11.2667442584        3.3034574698        0.0539753469
  H        11.8330668821        2.4513976807       18.1719769353
  H        12.7781023064        3.8931890600       17.6967881150
  H        13.6404353385        2.6669947804       18.5275211731
  S         6.2317495308        6.5082592329       18.4280109252
  C         6.2186933946        9.2023896764       18.8980706167
  H        15.8152055325        6.5160217230        7.3912860218
  H        15.1917029727        4.8756174280        7.2565346496
  C        16.6445260191        5.3658055895        5.8743583598
  H         6.0111565978        5.0855751865        3.3916158043
  H         6.3698780806        4.9640404569        1.7181295280
  C         4.9435882697        6.5967389794        2.3130401130
  S        12.0206826354       -2.2906451868        1.7365543169
  N        12.3874548505       -1.8947063722        0.1589414726
  C        12.4230112056        0.2370719696       -1.1299636910
  H        12.0439046684        2.2326699100       -1.9028083176
  C         5.8413172221        7.1702461570       20.0049022283
  N         5.8750297436        8.5609101001       20.0628920784
  O         6.5421391747       10.3631961114       18.7062870952
  H        16.4412529866        4.6598140463        5.1072254386
  H        17.0294550587        6.3194842568        5.3627648807
  C        17.7328936278        4.8168344767        6.8716173923
  H         4.2189414936        5.9872334762        1.8388677087
  H         4.5201335171        6.8499020698        3.2610669582
  C         5.0530975257        7.8496692868        1.4315467795
  C        12.7160513516       -0.3582738637       -2.3930586497
  S         5.3001591561        6.3387973108       21.4861783133
  C         5.8689249106        9.2418015394       21.3033842023
  H        17.0762994714        4.3129500638        7.6173317485
  H        18.3768849047        4.0232781229        6.5198678047
  C        18.6491769303        5.8815454337        7.5568875834
  H         5.5406612326        7.6493947668        0.4431213229
  H         5.7722344665        8.5678235435        1.9156096981
  C         3.6595249289        8.3853506461        1.1525046103
  H        12.3198411015       -1.3237652744       -2.4197996394
  C        13.2597273218        0.1495177852       -3.5790415031
  H         5.1996215934        8.8190084843       22.0226243707
  H         5.4212682260       10.2670643343       21.1348538289
  C         7.2692216683        9.2561168713       21.8445433981
  H        18.8235570955        5.4919298864        8.5198198279
  H        18.2224203672        6.8887246512        7.6152931875
  C        19.9159340592        6.1071155703        6.6879958698
  H         3.3309071984        8.3460229856        0.0963130147
  H         2.9314799212        7.9695434998        1.8319368557
  C         3.6217793288        9.9384524666        1.4725945372
  S        13.7266778880        1.7274441382       -3.9572219557
  C        13.5195953725       -0.8220068487       -4.7378295552
  H         7.2806469477       10.0827278823       22.5586561960
  H         8.0484820898        9.5074306336       21.1256792564
  H         7.6819570089        8.4031985279       22.3199009719
  H        20.5000127686        5.2420702687        6.6410243219
  H        19.6936585150        6.4181977208        5.6855537942
  H        20.6647931582        6.7736592587        7.1016225179
  H         4.2249880479       10.1916702490        2.3435122850
  H         4.1082442527       10.5316067636        0.6348696499
  H         2.6132250020       10.2813486267        1.6823739855
  C        14.3718976179        1.1400808880       -5.5426259801
  N        14.2070271137       -0.2519639919       -5.7367730180
  O        13.2422243425       -2.0397251089       -4.6717230571
  S        15.1412686511        2.1224132974       -6.7598055187
  C        14.4844086011       -1.0664286092       -6.9844844380
  H        14.4360112009       -2.0812486711       -6.7872242321
  H        15.4533534892       -0.9016263614       -7.3996036079
  C        13.4797775997       -0.7102888648       -8.0202479299
  H        13.9215107168       -0.8162050093       -8.9717921576
  H        13.0999650698        0.3450800514       -7.8220975632
  H        12.6132077242       -1.4041952665       -8.0064636080
  H        -4.0039627066       14.0947087229       16.1469752209
  C        -3.1041207485       13.4727174830       16.2544121659
  H        -3.4257749669       12.5033859423       16.5264496592
  C        -2.3037895945       14.1528148355       17.2992160197
  C        -2.3601894424       13.1427574871       15.0192146702
  C        -2.8506643528       13.6904915542       18.6693734299
  H        -1.2995312130       13.7317951347       17.2551365991
  H        -2.1396590316       15.2685097013       17.0993035151
  H        -2.8177358483       13.7404841640       14.2107796969
  H        -1.3839682610       13.4906756808       15.1946241167
  H        -2.2311658650       12.0649760340       14.7737266717
  C        -1.7748980085       13.2423005299       19.6767337123
  H        -3.5134323294       12.7948732348       18.5938363159
  H        -3.4161986196       14.5085523253       19.0413815560
  C        -2.2845665522       13.3890325621       21.1244135698
  H        -1.5035572588       12.2651035382       19.3507506421
  H        -0.9577874168       13.8371649512       19.4468675986
  C        -1.3189611650       12.7419828169       22.1383708870
  H        -3.2719913866       12.9648267614       21.2073318541
  H        -2.3351901025       14.3963621326       21.4509451358
  C        -0.0712092073       13.6275647562       22.4417723910
  H        -1.8553375892       12.5687237075       23.0736036935
  H        -1.0951501383       11.7605614477       21.7822887892
  C         0.9838334440       12.9336420017       23.3024676305
  H         0.2101584055       13.9711742579       21.4221917122
  H        -0.3868331177       14.5332599653       22.9263695707
  C         1.3465136419       11.5844438582       22.6644471142
  C         0.4776997566       12.2486681314       24.5177647980
  C         2.2248215342       13.7538240399       23.4520043102
  C         1.0197046444       10.5082819872       23.4406925806
  C         1.9005486992       11.1685344050       21.4786290389
  C         0.4633498528       10.8831247858       24.6472578169
  C         0.0539449513       12.9442101037       25.6735929945
  H         2.4354717407       14.3144541597       22.5589287009
  H         1.9244604074       14.4394764460       24.2878519398
  C         3.5067021594       13.0579360067       23.9358623252
  S         1.4416915454        8.9662462918       22.7540408420
  C         1.9456283218        9.8000367844       21.3018761730
  H         2.2131746864       11.8624545994       20.6921103118
  C        -0.0345624271       10.3370468434       25.8099433657
  H        -0.0773236382       14.0028856501       25.5019188499
  C        -0.3460771246       12.3481666109       26.8544552670
  H         3.8328574477       12.5097532713       23.0701132638
  H         3.3310025680       12.3027320606       24.6850891238
  C         4.6941180802       13.9353043226       24.2809024215
  C         2.3674853283        9.1387914431       20.0258383288
  C        -0.4461718880       11.0291251286       26.9728371351
  H        -0.0693087120        9.2339803511       25.9227168269
  C        -0.7718310691       12.8394251801       28.0979416215
  H         5.4250435342       13.4411382399       24.9543327393
  H         4.4053172456       14.8152552601       24.8584231736
  C         5.3844791304       14.4334729025       23.0534441517
  C         2.3013608384        7.7008254961       19.7795076084
  C         2.7643846598       10.0063343440       18.8923341579
  C        -0.8316471358       10.3908589765       28.2774134415
  C        -1.1676555053       11.7838009174       28.9041607361
  S        -0.9676904639       14.3862148238       28.7888934688
  H         6.0165911667       15.2480753366       23.3753930297
  H         4.5901124415       14.8286245480       22.3627772619
  C         6.2509446844       13.4594688564       22.2156147414
  N         1.8158429730        6.8214231120       20.7286951985
  C         2.6797671415        7.1507202147       18.5725677938
  C         3.0615979646        9.3993676999       17.6563984191
  H         2.8829751033       11.0415408038       19.0435709019
  C         0.3100611633        9.6309474060       29.0088902918
  C        -2.1062098486        9.5413070498       28.0738502700
  C        -1.4622473014       12.2480893583       30.1993498360
  C        -1.4433610247       13.5772382819       30.2212361336
  H         7.2487467793       13.5975050217       22.5355216159
  H         5.9734956431       12.3923459526       22.2821020159
  C         6.2771850835       13.9165444326       20.7268447807
  S         1.9383805214        5.3556943359       20.1386704755
  N         2.5005193568        5.7313748894       18.5971101923
  C         3.0039410275        7.9089752576       17.4719111976
  H         3.5129437034       10.0507480382       16.8660392571
  H         0.6185780439        8.8818951746       28.3376286563
  H         0.0405080658        9.1915675001       29.9472241891
  C         1.5111673522       10.5320303260       29.2791913836
  H        -1.9178541211        8.6245925878       27.4945850359
  H        -2.5958859072        9.3158517055       28.9948885274
  C        -3.2392981063       10.3686479187       27.4219931355
  H        -1.5678086958       11.5586577669       30.9438571370
  C        -1.7151666675       14.3145514519       31.4958017768
  H         5.8960663762       14.8874520698       20.5499011375
  H         5.5059534929       13.3430764134       20.2410402404
  C         7.5726773855       13.6318708151       20.0213634445
  C         3.3040002059        7.1682506733       16.2126254106
  H         1.7877668578       11.0607446238       28.3069473071
  H         1.3458622063       11.2478720658       30.0982577203
  C         2.6454119960        9.7222187872       29.9187573083
  H        -2.9699834422       11.0595697317       26.6331290635
  H        -3.5079719611       10.9899028875       28.2554786173
  C        -4.4406201151        9.5775664245       26.9524980918
  C        -1.6997691935       15.7599967701       31.6636963868
  C        -1.9021320404       13.5830989280       32.8004217110
  H         8.3669226064       14.0860463105       20.6574639965
  H         7.7030302227       12.5517755305       19.9845462936
  C         7.6588825514       14.1911234990       18.6032047846
  H         3.2052719474        6.1359106778       16.3230684488
  C         3.5937943856        7.5839567764       14.9523206481
  H         2.8024939805        8.8760091708       29.2311925582
  H         2.3449939076        9.4053205582       30.9059294537
  C         3.9607041622       10.5233849665       30.0741359981
  H        -4.1596916138        8.7646742704       26.2440529195
  H        -4.8457572429        9.1041928110       27.8568575986
  C        -5.4584735785       10.5109891743       26.2886973352
  N        -1.5169832549       16.7507836545       30.5910480500
  C        -1.8995058824       16.4093598237       32.9128929438
  C        -2.1045675589       14.2619975488       34.0328969972
  H        -1.8725020136       12.5211451228       32.8868185513
  H         7.8394034294       13.4152046629       17.8892940592
  H         6.6736569695       14.6456876006       18.4396242382
  H         8.4808655068       14.9139527228       18.3819492803
  S         3.7520883803        9.1609745146       14.3797740442
  C         3.6480201324        6.5178336363       13.9163246274
  H         4.0995972148       11.2089623135       29.2325550853
  H         3.9879485681       11.1339146923       30.9561240056
  C         5.1678089455        9.5913932476       30.0640013445
  H        -4.8949072582       10.8142115425       25.4154232504
  H        -5.5940379182       11.3541881834       26.8972943726
  C        -6.6494148911        9.6985228484       25.8862488718
  S        -1.2721702455       18.2359500947       31.2958102997
  N        -1.8990432358       17.7503965342       32.7798646920
  C        -2.1813347992       15.7080307785       34.1649716124
  H        -2.0557705234       13.5977165522       34.8697094322
  C         3.9757405946        8.4301258720       12.7657984645
  N         3.8525331230        7.0790459139       12.6787284624
  O         3.5498999308        5.3055968224       14.1626742578
  H         6.0201388155       10.2081028515       30.1721765899
  H         5.4088840491        9.1245884272       29.0488927899
  C         5.1955528471        8.4873988008       31.2549030006
  H        -6.2802148729        8.9656920048       25.1773881284
  H        -7.0913727681        9.0286635739       26.7010281534
  C        -7.6722723607       10.5884055405       25.2766689616
  C        -2.3244670755       16.4647401754       35.2976648267
  S         4.5989341247        9.3557658741       11.3891604527
  C         3.9947321948        6.3338804280       11.4684623091
  H         5.7465120648        8.7789189138       32.1806886093
  H         4.1223986488        8.3463686968       31.5106276142
  C         5.6837625790        7.1259304851       30.7788395905
  H        -7.2967449391       11.2028821503       24.4873070083
  H        -7.9059856255       11.3948847835       25.9673508820
  C        -8.9657090432        9.9264928581       25.0022410149
  H        -1.8629438590       17.4218308898       35.3641173440
  C        -2.8686492696       16.0859682488       36.5173469128
  H         4.7364918388        6.7148999541       10.7632416335
  H         4.3508380831        5.3508625016       11.7195659836
  C         2.7731899403        6.3766469079       10.7250173415
  H         6.7682394745        7.2507137608       30.4877380771
  H         5.1627956507        6.8421560080       29.8460023307
  C         5.5732554584        6.0737786799       31.9015080368
  H        -9.4268678627       10.2850074924       24.0069522849
  H        -8.8408054328        8.8302220573       24.8554782327
  C        -9.9621979165       10.0938837773       26.2075236488
  S        -3.4287138391       14.5430968413       36.9051552028
  C        -3.0603508681       17.1337086701       37.5579029014
  H         2.6593378901        7.3502976331       10.2452177765
  H         2.7609407669        5.7971096094        9.8321615557
  H         1.9138822462        6.1833193067       11.4315141427
  H         5.8125673162        5.0676004174       31.4719221916
  H         4.5373951444        6.0692892785       32.2723841394
  H         6.1476951539        6.3078496248       32.7532806968
  H        -9.8172543065        9.4076750182       27.0839179382
  H       -10.9117443922        9.8190023185       25.6713159993
  H        -9.9003494552       11.1322176299       26.5133310837
  C        -3.8901552306       15.2340774683       38.4398210839
  N        -3.6668789807       16.5477287653       38.6026414455
  O        -2.6573433503       18.2969353165       37.4701033921
  S        -4.4885705258       14.3187736237       39.8132091162
  C        -3.8648903646       17.2476764160       39.8252901430
  H        -4.1131460039       18.2873609628       39.5347638211
  H        -4.7271184772       16.9054306959       40.3776474910
  C        -2.6528913837       17.1992432313       40.6994624713
  H        -1.9750879720       18.0302829638       40.4755170346
  H        -2.8347004452       17.1710686787       41.7820287522
  H        -2.0068392635       16.2925243483       40.4772592179
