352
i=
  H         4.9503179303        1.7691277128       12.5178930970
  C         4.2554170885        2.6721565078       12.5408649418
  H         4.8763051448        3.5760480132       12.3290816162
  C         3.1597509311        2.6611910411       11.4478008516
  C         3.6875244175        2.7118447029       13.8924468408
  C         3.6012432183        2.8797212451       10.0076440519
  H         2.5358332639        3.5611885251       11.7940123391
  H         2.5423242588        1.7117342001       11.5733935582
  H         4.3301201357        3.3143329131       14.6853481363
  H         3.5065604714        1.6401428917       14.2935579149
  H         2.6952754909        3.3120994770       13.9751807421
  C         4.4491453392        1.6677376194        9.5367958003
  H         2.6897813962        3.0231848747        9.4253065871
  H         3.8489253278        3.8948864900        9.9302070969
  C         5.1650912166        1.8519777338        8.2421157218
  H         3.7268111608        0.8328079452        9.4170739737
  H         5.2688522121        1.3667798684       10.2718080056
  C         6.4009413540        2.7355875229        8.4577114959
  H         4.4745817916        2.2163559375        7.4586514795
  H         5.4838085987        0.8551377971        7.7852855662
  C         7.6209505852        1.9224976715        8.9377708411
  H         6.6750999180        3.1624865380        7.5068948414
  H         6.1994818357        3.7859444713        8.9351792221
  C         8.9153844738        2.7274595335        9.0441992720
  H         7.8118170353        1.1816923244        8.1735989131
  H         7.3927769551        1.5003950850        9.9144258743
  C         8.5932025077        4.0618050470        9.7440140810
  C         9.2592561375        3.5047138924        7.7480638167
  C        10.0598239248        2.0354768259        9.9641839167
  C         8.8255105548        5.1646586893        8.9815556365
  C         8.2252786384        4.3865943052       11.0541973983
  C         9.2497797862        4.8358394129        7.7247945873
  C         9.6500099174        2.9374225533        6.5326628258
  H         9.6038396355        1.8211122833       10.9845795519
  H        10.3949841368        1.0458144841        9.5174870337
  C        11.2812497469        2.9260078202       10.2200914731
  S         8.4609737404        6.6260251559        9.7731745365
  C         8.0557149010        5.6732614184       11.2266605284
  H         7.9820162730        3.7413802553       11.7727713148
  C         9.5671492482        5.4601666128        6.5743802962
  H         9.6643645016        1.7316581614        6.4432205496
  C         9.9897408916        3.6002064506        5.4080187012
  H        11.1023357779        3.9868128122       10.4378145654
  H        11.9070806040        2.8603617398        9.3221675501
  C        12.2557700077        2.3726918907       11.2883349671
  C         7.5857914389        6.4331461665       12.4862028017
  C         9.9327095997        4.9352340118        5.3506240751
  H         9.3562413657        6.6125680217        6.7135682758
  C        10.4065771626        3.2124973108        4.1400753656
  H        13.2748771657        2.9741361984       11.3051457258
  H        12.4368490092        1.3559883603       10.9562167782
  C        11.6227841111        2.2782959477       12.6457738343
  C         7.8521731237        7.7868564271       12.7694860778
  C         6.9859429241        5.6797437469       13.5728958868
  C        10.3662562038        5.6455024329        4.0883212750
  C        10.6336700598        4.3412032495        3.3325668775
  S        10.8033848079        1.7645106875        3.4115164652
  H        11.0751974638        3.2783455826       12.8219207343
  H        10.9649349158        1.3897173480       12.5674728554
  C        12.6278624772        1.9648216871       13.7004360322
  N         8.1699639385        8.8426182950       11.8796456975
  C         7.5245629336        8.3166940098       14.0084776606
  C         6.7951882909        6.1808395447       14.8479441359
  H         6.8225232778        4.6055671790       13.3287651020
  C        11.6388862463        6.3863147553        4.2985876883
  C         9.2239696238        6.4382455533        3.3013992695
  C        11.1391751628        3.9437544334        2.1183789896
  C        11.2317224985        2.6438810763        1.9724831490
  H        13.4669259199        2.6729441113       13.6706029962
  H        12.9382117079        0.9445117941       13.7178265571
  C        12.0328553762        2.1798995893       15.1058796986
  S         8.0836477361       10.2610450817       12.5565705454
  N         7.6562833551        9.7459666295       14.0694250511
  C         7.1270709028        7.6203096786       15.1978889234
  H         6.4167082648        5.4153158538       15.6152909527
  H        11.5789617366        7.2918414504        5.0688452479
  H        12.0873735658        6.9840195131        3.4213301229
  C        12.8545021214        5.5024419268        4.8242400712
  H         8.7432526564        7.1393326325        4.0604965411
  H         9.7851744787        7.0907194627        2.4729559245
  C         8.0721760018        5.5650916421        2.8059712179
  H        11.3275911234        4.6557179678        1.3466377669
  C        11.6689014920        1.8277714535        0.7210093761
  H        11.8853403984        3.2398330847       15.1971551328
  H        11.0960926099        1.5963997349       15.2043471703
  C        12.9833308376        1.8240849891       16.2077200908
  C         6.8178797557        8.3362607297       16.4283207347
  H        12.4158281172        4.9192090801        5.6486950458
  H        13.3035548547        4.8236205558        4.0519946941
  C        14.0451197056        6.2696408488        5.3709147724
  H         7.6203610752        5.1235749575        3.7122572265
  H         8.4480270196        4.8292869263        1.9915379912
  C         7.0104851942        6.4220020706        2.2210121387
  C        11.8046561375        0.4636161000        0.7502993229
  C        12.0130498227        2.5201393133       -0.5058260310
  H        14.0622365464        2.0400470095       15.8585450546
  H        13.0469576570        0.6553511702       16.1539444098
  C        12.6797270011        2.3038333301       17.4838697843
  H         7.2590072027        9.3286649829       16.4679747353
  C         6.4430824766        7.9193488151       17.6955410598
  H        13.7273936855        6.9432827268        6.2444517840
  H        14.4142032550        6.9903375838        4.5932706155
  C        15.1575949477        5.4819235490        5.9847467980
  H         6.6938251017        7.1782994882        2.9640139808
  H         7.3807874753        6.8364033924        1.2376162860
  C         5.7979148205        5.6297893793        1.8816708898
  N        11.5271219528       -0.4869281248        1.7360960309
  C        12.1484521074       -0.2233237420       -0.4303700731
  C        12.3343434157        1.8225744585       -1.6020430588
  H        11.8849058425        3.7013209110       -0.4896145704
  H        13.3200086915        1.9281083391       18.3413488975
  H        11.7005201175        1.9217004268       17.9293628500
  H        12.4915879591        3.4375002417       17.6524011790
  S         6.1495706388        6.2614435466       18.1884045017
  C         6.3536702563        8.8827741290       18.7960887353
  H        14.7915580893        4.9004220260        6.7420379993
  H        15.5850253563        4.7916486751        5.3185571397
  C        16.2951200661        6.3709607937        6.4991763944
  H         5.6892959875        4.6016037105        2.4431663618
  H         5.8327066735        5.3924589946        0.7473733606
  C         4.5577019158        6.4493530881        2.0365550913
  S        11.6122195036       -1.9575286528        1.2126625610
  N        12.0987351764       -1.6309268173       -0.3167569866
  C        12.4797657653        0.3759241763       -1.6672527811
  H        12.6127707917        2.5109559324       -2.4651790362
  C         5.7851375327        7.0044344380       19.7984704370
  N         5.9482070091        8.2739845154       19.8729926768
  O         6.8835602511       10.0220514727       18.6144326427
  H        16.6539454669        6.9997449829        5.6281954178
  H        15.8374456983        6.9728835098        7.3278740305
  C        17.4973432691        5.5355047118        7.0628617262
  H         3.7490217540        5.8398364387        1.6807967288
  H         4.4232654117        6.6935237859        3.0564036578
  C         4.4367834473        7.6862921692        1.1240374693
  C        12.8988413804       -0.4539764085       -2.7113309695
  S         5.6900349048        6.0716759385       21.3435134991
  C         5.9236444185        9.1516658980       21.0352651141
  H        17.1321458538        5.2907115824        8.0507662667
  H        17.5679119833        4.5597923444        6.5404697699
  C        18.8148061474        6.2799212517        7.1627913230
  H         3.8470885414        7.2669911181        0.2143053223
  H         5.3853956270        8.0988406732        0.5604824427
  C         3.5865489028        8.8138466974        1.7421999614
  H        12.6539790181       -1.6124242097       -2.6367316869
  C        13.3533924118       -0.3210889666       -4.0308940015
  H         5.3048144605        8.7356633437       21.8491992340
  H         5.4876890041       10.1321422123       20.8082293009
  C         7.3529820141        9.3379572128       21.6680749985
  H        19.3442792993        6.1251080866        8.0593761423
  H        18.6100636224        7.2290293543        7.1896427194
  C        19.7829861458        5.9623796720        6.0446646374
  H         2.6268771554        8.4705840830        2.1411729209
  H         4.0974741749        9.1262277598        2.7280804760
  C         3.6294952787       10.0053570581        0.9126973207
  S        13.7415189200        1.1334428723       -4.8706332309
  C        13.3843838239       -1.4938393762       -4.9145113918
  H         7.9320971907        9.8974857105       20.8534274777
  H         7.7365426718        8.3582239109       21.8454041340
  H         7.2237583984       10.0279294323       22.5316822660
  H        20.9003194600        6.3134894530        6.2934543432
  H        19.8315397034        4.8320373098        5.8668247574
  H        19.5749827887        6.3156905921        4.9796584826
  H         2.8363609584       10.8037817816        1.1849313878
  H         4.5600495550       10.6701493325        1.0064204292
  H         3.4465821171        9.8603382521       -0.2175082423
  C        13.7795529438        0.2087005421       -6.3187215040
  N        13.6458935376       -1.1941753557       -6.1843149555
  O        13.0491752420       -2.6054830139       -4.5322798104
  S        14.0964459840        0.8056616612       -7.9304473527
  C        13.6797122497       -2.1483365716       -7.2385601225
  H        14.3255437928       -2.9021098632       -6.9176500471
  H        14.2922046469       -1.7034735384       -7.9797960376
  C        12.3178854764       -2.4123324778       -7.7532254901
  H        11.5833193562       -2.6774596349       -6.9785118290
  H        12.1755881601       -3.2156126261       -8.4843080837
  H        11.6480987621       -1.7162756757       -8.2463054419
  H        -3.9001130111       14.6322575689       16.5232543463
  C        -3.4073900782       13.6911927381       16.6096087418
  H        -4.0332080164       12.8845611731       16.8193809271
  C        -2.3437358347       13.7447633065       17.6839436124
  C        -2.9156401071       13.3508145868       15.2625528846
  C        -3.0332177069       13.7348900453       19.0332744115
  H        -1.7674265956       12.7769020278       17.7449164515
  H        -1.7094215129       14.7044427021       17.6747027922
  H        -3.7071810294       13.4947161719       14.5218896265
  H        -1.9676716141       13.9376403647       15.1212207230
  H        -2.7178784077       12.2569519452       15.3606759686
  C        -2.0116387265       13.9356624950       20.2403730357
  H        -3.4520999081       12.7025352464       19.2239233858
  H        -3.7093846775       14.5944440028       19.0068602479
  C        -2.4815175875       13.4250067684       21.5674891544
  H        -1.0063185036       13.4727631505       19.8211418971
  H        -1.8602394549       15.0794789254       20.2279302610
  C        -1.3495356725       12.7617868644       22.3211927141
  H        -3.3170362115       12.7423413795       21.3384447533
  H        -2.9353668671       14.2958668035       22.0571718340
  C        -0.2228249607       13.7241967416       22.6664225396
  H        -1.8098752363       12.3448127258       23.1969390894
  H        -1.1476224014       11.8258521573       21.8702895041
  C         0.9994014859       12.9992704286       23.3087531644
  H         0.0781924546       14.3861336414       21.7848425211
  H        -0.7192911336       14.4018646096       23.4241999432
  C         1.2762025201       11.6578231365       22.6654743455
  C         0.5713735763       12.2410467423       24.5260891439
  C         2.3461553294       13.7278311296       23.3399173525
  C         1.0383065203       10.5458707016       23.4412677466
  C         1.6987086677       11.3560589249       21.4369258401
  C         0.6220140738       10.9130286440       24.6287043305
  C         0.1635870555       12.7895330491       25.7377698041
  H         2.6519982256       14.0071941285       22.2662893159
  H         1.9636744164       14.5816458744       23.9253177438
  C         3.5690628932       12.9946347648       24.0252764841
  S         1.4864717176        9.0770734512       22.7772993864
  C         1.9706691745       10.0326335024       21.3179841384
  H         2.0177099015       12.0688969137       20.7614467794
  C         0.2803828010       10.3298450001       25.8196133726
  H         0.1048944591       13.9232630080       25.7151837944
  C        -0.1980247964       12.1712643453       26.9228204377
  H         3.8057779904       12.0014857221       23.6225209188
  H         3.2401117080       12.8903485284       25.0220648396
  C         4.7492892297       13.8680737127       24.1784715298
  C         2.4994003436        9.4622519331       20.0002126049
  C        -0.1518396986       10.8362602091       27.0460993566
  H         0.2796462105        9.1396726029       25.8635354527
  C        -0.6345916073       12.5608565141       28.1580540588
  H         5.4540969372       13.4688097988       24.8612042223
  H         4.4080642726       14.7836009796       24.6902093126
  C         5.4411376658       14.2545457302       22.8877501715
  C         2.5374364450        8.0480865420       19.8003037203
  C         2.8937369616       10.3259888387       18.9473182963
  C        -0.6621553438       10.0879057271       28.3204532634
  C        -0.8377847092       11.4958648207       28.9833501990
  S        -0.9839213129       14.0887835266       28.8913821302
  H         6.2478276749       15.0548197645       23.0630271945
  H         4.7305807032       14.7683893907       22.1648410073
  C         6.2214364005       13.0124408405       22.2833184812
  N         2.3803122037        6.9892768954       20.7034808295
  C         2.8980312496        7.5086698473       18.5549285264
  C         3.3002355578        9.7849718341       17.7029352851
  H         2.9977964482       11.3698191499       18.9089006906
  C         0.4143570629        9.2291651275       28.9761418438
  C        -1.9901244241        9.4137906369       28.1214957540
  C        -1.2244755033       11.8949959182       30.2327444140
  C        -1.3381806216       13.2141668878       30.4241239061
  H         6.9020034191       12.4833930402       23.0424635813
  H         5.4165228871       12.2804004669       21.9321687646
  C         7.0824887871       13.3323986282       21.0659066305
  S         2.5026481180        5.5396500498       20.0164508388
  N         2.9192897347        6.0544915133       18.5386092525
  C         3.2405038072        8.2816585184       17.3904588908
  H         3.6562020946       10.5499285297       16.9272727849
  H         0.8115222738        8.5537471409       28.2384503837
  H         0.1402663628        8.5761773180       29.7698674552
  C         1.7375565967        9.9869832694       29.4320861131
  H        -1.8748312651        8.7296382154       27.2991749205
  H        -2.4017867239        8.9422783509       29.0014645458
  C        -3.1919206009       10.2852115640       27.6315161675
  H        -1.5051266499       11.2796838369       31.0603113122
  C        -1.7507456372       14.0110368676       31.6097240511
  H         7.6950403564       12.4864904213       20.6730778794
  H         7.5764513558       14.3197798185       21.1791495966
  C         6.1767191847       13.5870118804       19.8315874309
  C         3.4979099354        7.6412979832       16.1374748375
  H         2.1837924674       10.1634956585       28.4207726910
  H         1.4172433067       10.9573096486       29.9726368361
  C         2.7354299361        9.1416411590       30.1615806649
  H        -2.8740853274       10.8883334077       26.8671668715
  H        -3.4422300179       10.8960217357       28.4781604194
  C        -4.4395789282        9.4687695888       27.2546053240
  C        -1.7402917789       15.3869419812       31.6632134015
  C        -1.9783851209       13.2924280965       32.8417480347
  H         5.5090559564       12.7816890299       19.8105505100
  H         5.5626636841       14.4181597032       19.9901594653
  C         6.8235509991       13.7844189842       18.5445544429
  H         3.2487216488        6.5743187112       16.0760579174
  C         3.8760984279        8.0749171224       14.8669212115
  H         3.0317479241        8.3670650910       29.4234967647
  H         2.2814753407        8.7046625009       31.0025416658
  C         3.9265921625        9.9040352779       30.6408425893
  H        -4.1455836529        8.5989361319       26.6661322012
  H        -4.9351429972        8.9842577281       28.1177684055
  C        -5.3766646736       10.1918216173       26.4533496221
  N        -1.6513186334       16.3695885300       30.6547753722
  C        -2.0967119874       16.0491225417       32.8649567534
  C        -2.3360970243       13.9684558380       34.0443976023
  H        -1.7606656307       12.2774697097       32.8094416819
  H         6.2082252363       14.0512098689       17.6651065117
  H         7.5334829061       14.6170344506       18.5036713228
  H         7.3986321560       12.9669601636       18.1210286963
  S         4.1639903876        9.7397333258       14.5179965247
  C         3.9093947285        7.1458589329       13.7519557334
  H         4.1597082098       10.8358192338       30.0008468314
  H         3.7395484915       10.1647055026       31.7686127177
  C         5.2545428244        9.1617949814       30.7511846236
  H        -4.8669298700       10.5270938372       25.6074007772
  H        -5.6983554350       11.0658237766       26.9612995379
  C        -6.5827210360        9.3040716775       25.9268588605
  S        -1.8634350458       17.8277560935       31.1605755975
  N        -2.2141532198       17.4618147106       32.6992159332
  C        -2.3857727525       15.4381714210       34.0712522531
  H        -2.2520650932       13.2966134553       34.9295963110
  C         4.4150074774        9.1769052770       12.8879439675
  N         4.1754048779        7.8871976780       12.6645826021
  O         3.7773470493        5.9451658887       13.9050586435
  H         5.9298781051        9.8863360089       31.2406731195
  H         5.7175218802        8.9501535573       29.7906704625
  C         5.1872821727        7.9461818978       31.7399229668
  H        -6.3221303336        8.6862368492       24.9768047190
  H        -7.0138684914        8.6275761175       26.7975958456
  C        -7.8135351683       10.1275790683       25.4713636909
  C        -2.7203077974       16.2668476197       35.1949130493
  S         4.5746954084       10.2357467480       11.4962229382
  C         4.2756047607        7.2488328694       11.3586242826
  H         5.7156997503        8.2168197404       32.7375926544
  H         4.0538537406        7.6021234654       31.9695155376
  C         5.8954153023        6.7567026970       31.1022876835
  H        -7.5434395450       10.6736627522       24.5502806380
  H        -8.0001858150       10.9813678820       26.2061165833
  C        -9.0931082911        9.5348980128       25.2080494617
  H        -2.4353750845       17.3416321662       35.1194860854
  C        -3.2129081628       16.0021610325       36.4785967510
  H         4.8826081954        7.8256773560       10.7339591154
  H         4.9758330355        6.4741703508       11.3740033620
  C         2.9030773865        7.0065023866       10.7917304702
  H         6.9190939087        7.0685757328       30.9108822593
  H         5.5279482989        6.7548128659       30.0711784327
  C         5.6483356439        5.4400910626       31.7918337687
  H        -9.4681168060       10.0342143100       24.3955349660
  H        -9.0702727153        8.5803535527       24.8602545968
  C       -10.0673243551        9.5799474696       26.3942745894
  S        -3.6926470795       14.4097282857       37.0414065511
  C        -3.3490300301       17.0450222333       37.4650218568
  H         2.0070746663        7.6008085929       11.2338494026
  H         2.7401164357        7.3568385366        9.6984271534
  H         2.5521203189        5.9209945020       10.7478579256
  H         6.2566350703        4.5331591177       31.5236106717
  H         4.6647334142        4.9599975416       31.7357839679
  H         5.8290367249        5.3883545890       32.8392207778
  H       -11.0362732882        9.1093820225       26.1147015367
  H       -10.4182678009       10.5420215957       26.7378267453
  H        -9.6863355222        9.0017469652       27.2926842977
  C        -4.0530165760       15.2444324765       38.5452326484
  N        -3.7616256956       16.4888550464       38.6249139349
  O        -2.8587717008       18.1631736464       37.2056550191
  S        -4.6329991676       14.3429866760       40.0415252347
  C        -3.9211810066       17.3791635581       39.7491470716
  H        -4.0473791917       18.4366261995       39.5933588331
  H        -4.7427237263       17.0208903699       40.3541365008
  C        -2.6502128047       17.2370201809       40.6932612643
  H        -1.7146739177       17.6018207467       40.1523055842
  H        -2.9281089037       17.7725024704       41.7095204012
  H        -2.5975476322       16.1332446718       40.9103345487
