352
i=
  H         4.4865707259        1.2396397474       12.9481530869
  C         3.8605823153        2.1026592419       12.9061187206
  H         4.5111054153        2.9693840247       13.0324079277
  C         3.0452274866        2.0493675614       11.6151828762
  C         2.9796410005        2.0168316575       14.1858987959
  C         3.9007374928        2.5909775087       10.4312106669
  H         2.0880238321        2.6437000571       11.8082288537
  H         2.7897913339        1.0558336486       11.3270819575
  H         2.7333855779        0.9761172074       14.3088819478
  H         2.1558970455        2.7481255388       14.1799660014
  H         3.5633770501        2.2242247953       15.1009093064
  C         4.7001432858        1.5098464101        9.7686678135
  H         3.2992784744        3.0189234963        9.6725594998
  H         4.5431881597        3.3642834346       10.8127067647
  C         5.5101419096        2.0106229383        8.5758760466
  H         4.0478676270        0.7577746654        9.3862371587
  H         5.2332412038        0.8936061001       10.5567006165
  C         6.6912592745        2.9055309668        8.9020795581
  H         4.8160080215        2.6559862874        8.0542448086
  H         5.7930238999        1.2545163898        7.8318331932
  C         8.0317238412        2.1311478577        9.2170000282
  H         6.8566989191        3.4958762972        8.0923975202
  H         6.4096673670        3.6166306696        9.6769668893
  C         9.3858165150        2.9537046713        9.3049076393
  H         8.1085485660        1.3364947112        8.5070172996
  H         7.9795716219        1.5348455495       10.1066404046
  C         9.0311158610        4.3067710222       10.0074955542
  C         9.7480364973        3.6607300075        8.0475152964
  C        10.5717262164        2.1976262050        9.9392528166
  C         9.2137403557        5.3847722595        9.1548529852
  C         8.5631247166        4.6691955768       11.2913316643
  C         9.6005508750        5.0227226186        7.8696328309
  C        10.1532029463        3.0626605791        6.8261473375
  H        10.1162541139        1.6138147339       10.7111144198
  H        11.2146111123        1.5696634705        9.2637176611
  C        11.5236264582        3.1718720288       10.6806087005
  S         9.0321493216        6.9025408760        9.9430332501
  C         8.4234792503        6.0213592838       11.3869917981
  H         8.3872805623        3.8964959260       12.0235947456
  C         9.8945693520        5.6539683166        6.6899967573
  H        10.3071725396        1.9850478626        6.7864010702
  C        10.4265723824        3.7252340851        5.6570266219
  H        11.0599754583        3.5663858319       11.5608114183
  H        11.8816264807        3.9362981664       10.0124038388
  C        12.8591977205        2.5759028155       11.2093056260
  C         7.7805766735        6.7193900591       12.6000928671
  C        10.3136431165        5.0633289164        5.5115917300
  H         9.8330212281        6.7397308229        6.8012876472
  C        10.9447578301        3.3307749520        4.4278073797
  H        13.4200440426        3.4571288875       11.2038071709
  H        13.3577983297        1.9307709214       10.4792764421
  C        12.9039074514        2.0851300895       12.5923167647
  C         7.8613501984        8.1006359974       12.8887454312
  C         7.2219575662        5.8371150558       13.7013063314
  C        10.6849214944        5.7345896077        4.2629588835
  C        11.1658168962        4.4210095866        3.6184998079
  S        11.3322777574        1.8272192359        3.6214566221
  H        12.0422882362        1.4044661232       12.7105767479
  H        13.8186076180        1.4280541565       12.7893095170
  C        13.1060615954        3.1710293958       13.7051878727
  N         8.3584544071        9.0939887239       12.0386742076
  C         7.4386262559        8.5787638044       14.1212447012
  C         6.8368741320        6.3974141094       14.9011902636
  H         6.8948441228        4.7801694356       13.4926218764
  C        11.8677556637        6.7368293492        4.4129395545
  C         9.5247289170        6.4604273831        3.5406908159
  C        11.5079493325        4.0182212360        2.3248486470
  C        11.6129381126        2.6394158801        2.1374194010
  H        12.7965981678        4.1780798958       13.3176899963
  H        14.1816318090        3.3134946531       13.7762208363
  C        12.1732629971        2.8470800980       14.8865722861
  S         8.2837622646       10.4622085861       12.9000439645
  N         7.5907517801        9.9396808546       14.3246182976
  C         6.9925933973        7.8014966019       15.1725909767
  H         6.4219376549        5.7870193195       15.6258293718
  H        11.4907480647        7.7212587526        4.8026363375
  H        12.4006292622        6.8299280636        3.4928415798
  C        12.8821085424        6.2398810789        5.4825803590
  H         9.4235081792        7.3879345500        4.0951196411
  H         9.9263773532        6.7296669304        2.5638087578
  C         8.1978142225        5.6647830462        3.5398400440
  H        11.8359932932        4.8048806061        1.6431263908
  C        11.9797343934        1.8856918521        0.8447645681
  H        11.8466660615        3.7174532821       15.4273947601
  H        11.3192366405        2.1904521238       14.5712235515
  C        12.9662170786        2.0186543828       15.8170146278
  C         6.6270596854        8.4393118366       16.4290076927
  H        12.6037387510        6.2997815072        6.5347683067
  H        12.9998497866        5.1719130005        5.2289456101
  C        14.3018138403        6.7250430244        5.5059158273
  H         7.5598754256        5.8165391426        4.4094718338
  H         8.4443556398        4.5857657797        3.5108879995
  C         7.2818638827        5.8184512289        2.2486216343
  C        11.9766734096        0.4527720253        0.6369644389
  C        12.2517093259        2.6482386146       -0.3957778104
  H        13.5432587293        1.2153912340       15.3538962325
  H        12.2760509765        1.4295544992       16.4806664555
  C        13.7399967742        2.8888148074       16.7454422221
  H         6.8981706397        9.4464453046       16.5427928822
  C         6.4255164061        7.9300468859       17.6510745992
  H        14.2768186015        7.8255968280        5.5505225693
  H        14.7235531191        6.3427948987        4.6096085978
  C        15.2347395765        6.2870963121        6.5955484558
  H         7.6713635443        6.5417689673        1.4890384835
  H         7.3160241314        4.8128054085        1.8301072015
  C         5.8606522998        6.2153756040        2.7761479152
  N        11.7825614581       -0.4552540719        1.6200064513
  C        12.2772502253       -0.1742809039       -0.5863593558
  C        12.4826433880        2.0304816918       -1.6197506044
  H        12.2802771667        3.7571223743       -0.3040852308
  H        13.2459250545        3.8393168018       17.0316559695
  H        14.7321928828        3.1921422111       16.3526366409
  H        14.0274139832        2.4149139969       17.7038712250
  S         6.1172298204        6.2954933611       18.1417043961
  C         6.3243251133        8.9901863879       18.7248071027
  H        15.3756530178        7.0400788153        7.3355452539
  H        14.7598511509        5.4035201369        7.1075814180
  C        16.5696646965        5.8245367804        6.0310956553
  H         5.5152469273        5.4009032936        3.4509940802
  H         5.0789607381        6.0927125696        1.9740296807
  C         5.6678918600        7.7298465313        3.3793883656
  S        11.7842599608       -1.9918418750        1.0825355815
  N        12.1992306581       -1.5794974144       -0.4181438207
  C        12.5874558344        0.5225877135       -1.7270156496
  H        12.5954091685        2.6653032673       -2.4623207654
  C         5.7574101288        7.0494736322       19.7616290081
  N         5.9366944227        8.3805370510       19.8237104473
  O         6.4912258500       10.1931470791       18.6448721278
  H        16.5447726636        5.2311223663        5.0654456585
  H        17.0819488193        6.7342693268        5.6951531650
  C        17.3143879214        5.0093624812        7.0618163667
  H         4.9504007909        7.6303888564        4.1382535716
  H         6.5872412626        8.0855782720        3.8923702365
  C         5.2517077454        8.8770485957        2.4205626288
  C        12.8111903587       -0.2198377382       -2.9268386278
  S         5.5481478781        6.1811734479       21.2352139316
  C         5.8042077328        9.1404058039       21.0308147727
  H        16.7243787984        4.8978535791        8.0064239672
  H        17.5829466557        4.0070180637        6.7604010412
  C        18.6151589200        5.7776217808        7.5613687745
  H         5.6989977660        8.7144799410        1.4518481814
  H         5.5201436712        9.7407177768        2.9377509691
  C         3.6882990778        8.8661642128        2.3237506338
  H        12.4886673820       -1.1966273040       -3.0286429791
  C        13.4761668516        0.1936824274       -4.0645252872
  H         5.1990536477        8.6500421934       21.7453243109
  H         5.3662294649       10.1135275535       20.8610684698
  C         7.2101912794        9.3188715543       21.6619915334
  H        18.8064410039        5.2774789456        8.4858798949
  H        18.1978575200        6.8107961045        7.8725758130
  C        19.8046796085        5.8509291109        6.6574519675
  H         3.3573556943        7.8764112089        2.1283463228
  H         3.1998209875        9.1692850229        3.2640486508
  C         3.1068451847        9.7157649267        1.1541439682
  S        14.2308630251        1.6475945177       -4.4313799246
  C        13.3471353510       -0.7433364503       -5.2337020446
  H         7.2867827772        8.3878395022       22.3189073093
  H         7.2536946094       10.2755734397       22.2926597475
  H         7.9722511046        9.4556928050       20.9083480531
  H        19.5327314130        6.4316324433        5.7989114675
  H        20.5995059700        6.3749688297        7.1836614513
  H        20.0510879930        4.8696946772        6.2895254958
  H         2.3934707941       10.3920723275        1.6316369531
  H         3.9019664543       10.3206761714        0.6794405469
  H         2.6376837645        9.1386416603        0.3653703326
  C        14.3464183892        1.1191886701       -6.0669422945
  N        13.9015343087       -0.1538394335       -6.2901404435
  O        12.9218057996       -1.9393859576       -5.1968481437
  S        15.0129606141        2.1174160051       -7.3967516386
  C        14.1056193613       -0.9225882153       -7.5458510501
  H        14.3855384870       -1.9183511214       -7.2452235678
  H        14.9173186968       -0.4189876760       -8.0744962868
  C        12.8199215211       -1.1518978412       -8.2789310381
  H        11.9161428852       -0.8899476101       -7.7007545515
  H        12.5757065438       -2.2144883777       -8.6003045423
  H        12.7915225565       -0.7438811729       -9.2757493326
  H        -1.8768064142       14.8751595190       16.2073850316
  C        -2.7182235476       14.1344873966       16.1743229597
  H        -3.6462421043       14.7191783594       15.9901611571
  C        -2.7359493186       13.4385324837       17.5230686085
  C        -2.7175632243       13.1480402376       14.9682815449
  C        -2.3327038750       14.2746047429       18.7671494917
  H        -3.7870251577       12.9818883096       17.6273612149
  H        -2.0997925652       12.5921629363       17.3763783204
  H        -2.0247961943       12.2830927733       15.1062150546
  H        -3.6794837054       12.6844328969       14.9738391566
  H        -2.6380979741       13.6295707969       14.0529449282
  C        -1.7212863436       13.2125025847       19.7813026187
  H        -3.2684731180       14.6856087377       19.1816642540
  H        -1.6724432769       15.0859951089       18.5734104707
  C        -2.3372079146       13.2731278141       21.1167328558
  H        -1.8607293322       12.2244522212       19.4057459479
  H        -0.6667820756       13.3163514243       19.7912764150
  C        -1.3111345875       12.8200871079       22.2156929327
  H        -3.2773084123       12.6738182937       21.1229559289
  H        -2.5614891456       14.2919349381       21.4788791009
  C        -0.2448152166       13.8234299492       22.5616455650
  H        -1.8202871986       12.7309317709       23.1772396617
  H        -1.0367122546       11.8545791547       21.9010823815
  C         0.9586492919       13.0880939087       23.1454425481
  H         0.0270605924       14.4753768913       21.6762581647
  H        -0.5927233130       14.5173121539       23.3356369942
  C         1.2826409225       11.7210724928       22.4775024227
  C         0.5754928601       12.3662293130       24.4200993415
  C         2.2744075025       13.9075861072       23.3134444351
  C         1.2293278447       10.5803755717       23.2537398353
  C         1.7580089509       11.3285353828       21.1935404248
  C         0.7531745247       11.0180185273       24.5185882163
  C         0.0268014408       12.9425025971       25.5266680027
  H         2.5727568328       14.4603175135       22.4610217700
  H         2.0322923414       14.7467554514       23.9837400643
  C         3.5077319439       13.1897412811       23.8560996320
  S         1.6760906894        9.0978482971       22.5294039469
  C         2.0463680314        9.9748687507       21.1052756380
  H         1.9665725935       12.1110367487       20.4973138693
  C         0.5064901458       10.3084485686       25.7096935341
  H        -0.1629916924       13.9888481111       25.4283364701
  C        -0.1857525581       12.3207222998       26.6975173852
  H         3.9456270425       12.4514717810       23.1606160514
  H         3.1495263333       12.5926544147       24.7087960312
  C         4.6130874140       14.0799021287       24.3837173702
  C         2.4693260356        9.3503317362       19.8338287830
  C        -0.0340364569       10.9383157022       26.8588655519
  H         0.5123177643        9.2569338214       25.6383476850
  C        -0.5100601935       12.6965441345       27.9990492109
  H         5.3444769036       13.4216066122       24.8389750596
  H         4.3848914913       14.7326161754       25.2650255123
  C         5.4238384894       14.7680187486       23.3372816046
  C         2.4209427771        7.9809815778       19.5544782495
  C         3.0040728095       10.1748057319       18.7164128303
  C        -0.3960994204       10.2093584781       28.1765619885
  C        -0.6382213619       11.5456432405       28.8136097697
  S        -0.9349111514       14.1873705906       28.6852663806
  H         5.9689539104       15.6158878692       23.7859494084
  H         4.8314746457       15.3232196335       22.6476338919
  C         6.3508728801       13.8905885887       22.4493154923
  N         2.1983194002        7.0438639807       20.5088995264
  C         2.7963062617        7.4552125422       18.3255196278
  C         3.2546876265        9.6280333872       17.4551704457
  H         3.2029692679       11.2364883379       18.9028755135
  C         0.7216399284        9.4499728891       28.9227337121
  C        -1.7227947811        9.4088796085       28.0869538260
  C        -0.9472048141       12.0886284363       30.1633037437
  C        -1.0746240118       13.4073613500       30.2454041359
  H         7.3730035277       14.3649857461       22.5979067257
  H         6.5500372771       12.8815170299       22.7929758315
  C         5.9362391427       13.8440194303       20.9530676058
  S         2.3270362404        5.5908680152       19.8674609189
  N         2.6763738330        6.0554365684       18.3537730535
  C         3.1305666827        8.1347864311       17.1510183677
  H         3.5611690881       10.2586709504       16.6635203544
  H         0.9361702518        8.4706971387       28.5579085512
  H         0.2609150490        9.3781423051       29.9411411594
  C         2.0112649082       10.2017758306       28.9951455536
  H        -1.4932680337        8.6584673534       27.2897767125
  H        -1.9561662299        8.8536104508       29.0068389348
  C        -2.9204447535       10.2074952013       27.6540678115
  H        -0.7749575067       11.4039574481       30.9942198241
  C        -1.2937981256       14.2282188728       31.5142684012
  H         5.8708899585       14.9090189724       20.6187437529
  H         5.0158184647       13.2999196704       20.9506604490
  C         7.0153677041       13.1381423387       20.1423376959
  C         3.4321944139        7.4262626811       15.9003740419
  H         2.6478322566        9.9639542466       28.1849422532
  H         1.9284062908       11.2977609942       29.0091348662
  C         2.7854320433        9.7952392441       30.2603328430
  H        -2.6834232785       10.8865531279       26.7675246595
  H        -3.1684218929       10.7242606289       28.5868565760
  C        -4.1785428540        9.3738050558       27.4408393818
  C        -1.4714113398       15.6209968527       31.5685066663
  C        -1.4977147382       13.4704962405       32.8548416612
  H         7.9602085846       13.1084445242       20.7047878161
  H         6.7997248442       12.0808740858       20.1726630245
  C         7.1637433243       13.6653351940       18.7521472265
  H         3.2767914188        6.3743273173       15.9473896936
  C         3.8733797604        7.8444510981       14.6719895297
  H         2.4213950329        8.8673498139       30.5642225288
  H         2.5480065089       10.5241737112       30.9862000115
  C         4.2963481859        9.9340952138       30.0210948919
  H        -3.9445489567        8.4737080587       26.8128475999
  H        -4.3693172289        9.0485781280       28.4485973824
  C        -5.3468751212       10.2503785332       26.9781355167
  N        -1.2423536884       16.5773170244       30.5447051793
  C        -1.6985068116       16.2568744462       32.7682735073
  C        -1.7108580091       14.1437661300       34.0273818628
  H        -1.2971335647       12.4299757359       32.9615980853
  H         6.1724071875       13.6396057866       18.2166913974
  H         7.4452678989       14.6867952946       18.8155394395
  H         7.8453565842       13.0975792304       18.1658886657
  S         4.1977648128        9.5200376885       14.1518166424
  C         3.9205213162        6.8366523222       13.5821504763
  H         4.4172500607       10.6155888272       29.1888561443
  H         4.6530870392       10.4564101844       30.9055905275
  C         4.9722327718        8.5231024804       29.9582316805
  H        -5.0207175101       11.2402510203       26.5610186473
  H        -6.0522456886       10.3986570495       27.8370633004
  C        -6.2371864311        9.5244347466       25.9757419899
  S        -1.2721967004       18.0793973101       31.1236884404
  N        -1.7393610324       17.6282694186       32.6679424174
  C        -1.9071806765       15.5820890091       34.0211934765
  H        -1.6482779768       13.5708966122       34.9784605403
  C         4.4662455723        8.7839352145       12.5774010864
  N         4.3688886406        7.4751304077       12.4716599642
  O         3.8282292017        5.5981595868       13.7906295911
  H         5.9682298629        8.7456285878       29.6401921207
  H         4.4522090340        7.9399682773       29.1556625600
  C         5.0382689430        7.7157938423       31.2198707484
  H        -5.6130589068        9.2660590043       25.0757745310
  H        -6.6640866548        8.6703650331       26.4115948439
  C        -7.3883922705       10.5165054481       25.4657298285
  C        -2.2195601414       16.3854516778       35.1527794506
  S         4.8673499907        9.7121017561       11.1358817893
  C         4.4288734330        6.8068535718       11.2541828351
  H         5.8098852324        8.2775165265       31.8321187808
  H         4.1445523126        7.7855837888       31.8247966911
  C         5.3864222547        6.2687748803       31.0084759990
  H        -7.0243180605       11.3104182459       24.7539152156
  H        -7.7930715886       11.0538167025       26.3643013393
  C        -8.4340638880        9.7033936584       24.7916480876
  H        -2.1062602610       17.4269307684       35.0039924389
  C        -2.5779285027       16.0660389966       36.4789490037
  H         5.3763377457        7.0073787851       10.6975949526
  H         4.6712816587        5.7370575467       11.5001467139
  C         3.0926507708        6.9012900924       10.4930347916
  H         5.1638252966        5.9985459018       30.0102397273
  H         4.9128056815        5.5903320790       31.6950291000
  C         6.8662123995        5.9038638267       31.1951151229
  H        -8.8769799697       10.0661496194       23.8497972307
  H        -8.1044364596        8.7226912518       24.6610257673
  C        -9.6786036217        9.6105585375       25.6369828984
  S        -3.1749649048       14.5824017626       37.0267912366
  C        -2.7931895114       17.1939668436       37.3999129329
  H         2.6733590935        5.9047334425       10.1949179469
  H         2.3605560939        7.4237783574       11.1308389905
  H         3.1888259642        7.5698954459        9.5836987235
  H         6.9432135355        4.8876851000       31.0235804592
  H         7.2935157926        6.2277334085       32.1436520350
  H         7.5210400881        6.3007698141       30.3901911209
  H       -10.1324125048       10.5807783394       25.7310129080
  H        -9.3525465760        9.1996492592       26.6260686160
  H       -10.5422555602        9.0139172214       25.3806752701
  C        -3.4313157370       15.3309871158       38.6022797459
  N        -3.3126305212       16.7362075669       38.5124398947
  O        -2.5594812716       18.3684093292       37.1903122562
  S        -4.1142223743       14.6034370272       40.0069333072
  C        -3.5219224476       17.6155638912       39.6411573918
  H        -3.7972679280       18.5881362697       39.2224955098
  H        -4.4373409932       17.3543949682       40.1867954349
  C        -2.1865551563       17.7229355148       40.4106281551
  H        -2.3159095501       18.3506593325       41.3189376937
  H        -1.7386105318       16.7592637483       40.6867998863
  H        -1.5220335142       18.3032932612       39.7798319688
