352
i=
  H         5.1343219670        2.0476237086       12.3325467632
  C         4.2224230091        2.6215497327       12.4497600254
  H         4.3977392647        3.6830806080       12.5295877964
  C         3.1750761619        2.5097366799       11.3504129774
  C         3.5789947340        2.1804079895       13.7599872973
  C         3.9238353304        2.6583188424       10.0265138693
  H         2.5081318549        3.3546458724       11.4049968645
  H         2.6054044793        1.5244359592       11.2343976781
  H         2.6434970763        1.6741673555       13.6316852260
  H         3.2222389304        3.0596929316       14.4490683027
  H         4.3965775387        1.6176179316       14.3781970402
  C         4.5425325545        1.2982369648        9.4483417120
  H         3.1844812082        3.0141996164        9.3668393835
  H         4.6317440083        3.4466951354       10.1088231955
  C         5.2950834274        1.4417099940        8.1237691245
  H         3.7487259874        0.5855253798        9.4253651601
  H         5.0868765872        0.8462224974       10.2448361616
  C         6.4753025628        2.4674985939        8.2115236178
  H         4.6742425002        1.5565786151        7.2452184033
  H         5.6677888049        0.4454027667        7.9616844544
  C         7.6466513905        1.8377222721        8.9570302324
  H         6.7442008018        2.7693629336        7.1115988108
  H         6.2458053621        3.4121465270        8.6487213939
  C         8.8816080796        2.8252979361        9.0108229375
  H         7.9874396218        1.0382910529        8.3302775039
  H         7.2051810942        1.5780479686        9.8636825687
  C         8.5937495995        4.2156980780        9.5958576295
  C         9.3942888602        3.5221748627        7.7335679068
  C        10.0873362842        2.1152242257        9.6639040381
  C         8.8685900184        5.2925252363        8.7292165537
  C         8.2582338771        4.5720777854       10.9328472244
  C         9.3835683832        4.8769742690        7.5242887598
  C         9.7869699159        2.9034351084        6.5851022240
  H         9.6980037060        1.6701105171       10.5465302290
  H        10.3243857386        1.2797299923        8.9219791167
  C        11.3129433690        3.1569843920        9.9176001325
  S         8.5270431359        6.8277467163        9.4923627457
  C         8.1016400134        5.9433586878       11.0081800315
  H         7.9338460142        3.7270297714       11.6539331761
  C         9.7164687681        5.5024650917        6.3044386239
  H         9.9895265164        1.8330137221        6.6829445387
  C        10.1953121316        3.4880411491        5.3845644093
  H        10.8906557941        4.1397663161       10.2684543723
  H        11.7083196570        3.3809825285        8.9243395202
  C        12.3139707598        2.6715780406       10.9177653504
  C         7.6636000254        6.6952947127       12.3273966349
  C        10.1943015680        4.8314602482        5.1860920699
  H         9.5347962107        6.5719611818        6.2697853483
  C        10.6739031888        3.0322074438        4.1966117314
  H        13.2294398308        3.3342050925       10.9739890394
  H        12.6920907420        1.7075327531       10.4797146403
  C        11.7825859745        2.3168956855       12.3237853619
  C         7.6860864712        8.1110264270       12.5311866149
  C         7.3002140080        5.8781991037       13.4840310767
  C        10.6530637516        5.5106537281        3.9237970965
  C        11.0039873855        4.1321929009        3.3284214435
  S        10.9490211466        1.5261482864        3.4320594015
  H        10.9817316990        2.8691204914       12.6763324755
  H        11.5258419798        1.2279350425       12.1952400812
  C        12.9211243823        2.4399043378       13.3750775842
  N         7.9614883994        9.1076659454       11.5810124282
  C         7.5281591983        8.5976423423       13.7965330555
  C         7.0963594877        6.4364153054       14.7584613003
  H         7.2554811796        4.8060227002       13.4365755852
  C        11.9482870596        6.3223134372        4.1115378157
  C         9.6200117877        6.4190251165        3.0350669816
  C        11.4319241897        3.6082108647        2.0713756907
  C        11.5222677344        2.2978733082        1.9892459235
  H        13.3904630908        3.4270517699       13.4468924035
  H        13.7476102417        1.8252031604       13.1728763181
  C        12.4074389561        1.8985781320       14.7738945368
  S         8.1520973221       10.5606483097       12.3784738143
  N         7.7116363861       10.0041285719       13.8493651157
  C         7.2035006294        7.8855468770       14.9581989120
  H         6.7290143494        5.8037510290       15.5077110031
  H        11.5878972357        6.8918725280        4.9522419220
  H        12.0763732981        6.9304435641        3.2320866137
  C        13.2533425629        5.5271682101        4.4821700625
  H         9.3193011657        7.1940189729        3.6427553410
  H        10.3095161108        6.8712397561        2.1795998589
  C         8.3435802835        5.6968332156        2.6525588666
  H        11.6108429831        4.3242558711        1.3141533796
  C        11.8006450087        1.5378972005        0.7105287135
  H        11.7148602286        2.6245576293       15.2475183758
  H        11.8096301523        0.9411333315       14.6055496576
  C        13.4783423620        1.7752519248       15.8439655581
  C         7.0157938897        8.4926899607       16.1938949635
  H        12.9876185330        4.6407293630        5.1652691978
  H        13.7157125441        5.0091095749        3.6085914573
  C        14.3110778182        6.3334253375        5.1208459295
  H         7.9812930278        5.1491161406        3.5071309478
  H         8.6303177976        4.9293955401        1.8312056084
  C         7.2738473569        6.6722286831        2.3878620342
  C        11.8313794738        0.1489719561        0.5821802133
  C        12.2044908110        2.3287299588       -0.4951884832
  H        14.3567841037        2.3134392403       15.4926108039
  H        13.6852861132        0.7643241719       16.0682690875
  C        13.0319306012        2.2875183182       17.3199826523
  H         6.9919854511        9.5593683022       16.2799153472
  C         6.8021226898        7.9996057394       17.4823051142
  H        13.9321701288        6.6214058595        6.1128874268
  H        14.4534189071        7.2095698770        4.4790822421
  C        15.6235938037        5.4437147166        5.0738800064
  H         7.0193695305        7.1304206573        3.2501473830
  H         7.5343659173        7.5091982662        1.9042499811
  C         6.0924365739        6.0857945503        1.5990063254
  N        11.6109318203       -0.8214114929        1.6030393383
  C        12.0943505358       -0.5274951866       -0.6408629389
  C        12.3628773961        1.6886773241       -1.7059993540
  H        12.0031137994        3.3755975538       -0.4724058618
  H        12.0337128129        1.7853744771       17.6088537160
  H        12.8876371988        3.4093856961       17.2864107039
  H        13.7958686901        2.1471502146       17.9860888428
  S         6.4905378860        6.3837942458       17.9932174089
  C         6.8278686221        8.8924776221       18.7072884285
  H        15.5226716250        4.4798402406        5.5930700167
  H        15.9147565470        5.2845523833        4.0177724457
  C        16.8257514221        6.1806357350        5.6437314400
  H         5.5648488109        5.3776672173        2.1414959549
  H         6.5439665034        5.5218525878        0.7529777227
  C         5.0539357157        7.1434809530        1.1675834413
  S        11.4989633538       -2.2717971515        0.9742375072
  N        11.9635294217       -1.8923998499       -0.5320482114
  C        12.3596642853        0.1873418462       -1.8340682747
  H        12.4888636656        2.3234791602       -2.5860161935
  C         6.2500941399        6.9540168468       19.6424659085
  N         6.3935956752        8.2975867899       19.7614064669
  O         6.9295992384       10.1172589675       18.6211096528
  H        17.5170094017        6.3365429964        4.8225638734
  H        16.6406373773        7.2229884336        6.0352291371
  C        17.4612126099        5.3437986936        6.7748751249
  H         5.5328133362        8.1709534490        0.9387505530
  H         4.4952129445        6.7505568654        0.3376183770
  C         4.0926676822        7.3726811391        2.3281646875
  C        12.6717337893       -0.4871915482       -3.0248442070
  S         5.5942038439        5.9005691943       20.9186982002
  C         6.3681946356        8.9443387747       21.0191676217
  H        16.7025242721        5.5935665121        7.5188945470
  H        17.4623721845        4.2089983774        6.6548847294
  C        18.8635421575        5.7831873834        7.2566968575
  H         4.5339273152        7.4669153962        3.3028113133
  H         3.4202062612        6.4971026670        2.3240464657
  C         3.1719063769        8.6903381495        2.1289648792
  H        12.6367218207       -1.4767938873       -3.0573328865
  C        13.2253811623       -0.0549483966       -4.1745933058
  H         5.7602329508        8.4024673333       21.8234211471
  H         5.9328393505        9.9697979253       21.0563632978
  C         7.8702770954        9.1261295724       21.5728533836
  H        19.1411835768        5.2991279297        8.2614012958
  H        18.7272151706        6.9510609456        7.3385672193
  C        19.9293075654        5.4962775682        6.2349837928
  H         3.1021162663        8.8386262238        1.0570052405
  H         2.1439757484        8.6056782639        2.5228727144
  C         3.8823242715        9.9871155319        2.7180170122
  S        13.6678170004        1.4859944558       -4.7257889075
  C        13.2809943647       -1.1565782775       -5.2384344152
  H         8.3862011138        8.0939014803       21.6445287685
  H         8.0743861588        9.4096915711       22.5603379946
  H         8.4849853909        9.7673644853       20.9198838608
  H        19.7470516094        5.8667485411        5.1730094490
  H        20.9211329164        5.9063574762        6.4746828811
  H        20.0630774943        4.4177726443        6.2672039659
  H         4.2484816635        9.6973157257        3.7032621063
  H         4.7838500545       10.1804006934        2.0616119311
  H         3.2463628118       10.8390303741        2.6687927427
  C        14.0481500400        0.7655178521       -6.2492488743
  N        13.9022265741       -0.5855067229       -6.3092370225
  O        13.1108430116       -2.3648982484       -5.0361038738
  S        14.6530000107        1.6480055096       -7.5850195980
  C        14.0936950282       -1.4001673421       -7.5141459240
  H        14.0457156783       -2.4172624210       -7.3949918794
  H        15.0509411857       -1.2025252057       -7.9684680357
  C        12.9123877336       -1.0470832376       -8.5039984875
  H        12.8720259404       -0.0458624756       -8.7895368822
  H        11.9262203907       -1.3625822670       -8.1087085783
  H        13.2624456359       -1.7140149464       -9.3223562396
  H        -3.7063785085       14.9435569631       16.4670212242
  C        -3.2214945010       13.9498062586       16.4606844912
  H        -4.0509261982       13.3098821861       16.8116624668
  C        -2.1356327815       13.7627586970       17.5397391118
  C        -2.6478196934       13.4852233095       15.0359301331
  C        -2.6859273350       13.8678110607       19.0259052338
  H        -1.6726480727       12.8303257378       17.5511185426
  H        -1.3267593732       14.5182061913       17.2867488539
  H        -3.1517556948       12.6281320112       14.6262474816
  H        -2.7713679436       14.3248020928       14.2952693113
  H        -1.6212110575       13.2816351080       15.0587369910
  C        -1.5987169499       13.8500086302       20.1051197286
  H        -3.4509056366       13.1454767363       19.0534750589
  H        -3.1975173692       14.8816129270       19.0105287237
  C        -2.2734257543       13.4898292626       21.4405099167
  H        -0.8186496231       13.2162817560       19.7277469275
  H        -1.0894411681       14.8332553363       20.1080319552
  C        -1.2132943568       12.8854970147       22.4402444356
  H        -2.9381659688       12.6916285461       21.2196868768
  H        -2.7324742710       14.3432568624       21.8674949384
  C         0.0886700116       13.7213625543       22.6641634150
  H        -1.6700095311       12.7882054684       23.3449107980
  H        -0.8010772906       11.9871702898       22.1391446622
  C         1.1620116044       12.9882480498       23.3927636911
  H         0.4902590731       14.0434471393       21.6844509579
  H        -0.2044746676       14.6244753415       23.1173460367
  C         1.6746318198       11.6217464298       22.7389783917
  C         0.6319114826       12.2876979392       24.5941795683
  C         2.4022968458       13.9723345948       23.5935064831
  C         1.3488376266       10.5322184438       23.5109419244
  C         2.2795776795       11.1792433775       21.5285101656
  C         0.8390928941       10.8964009756       24.7516176077
  C         0.0590854440       12.9110934778       25.7193199386
  H         2.4394192136       14.4980145584       22.6369835793
  H         2.0682284974       14.5985333111       24.3239326436
  C         3.6699507417       13.1031970735       23.9412810062
  S         1.7379406563        8.9568601892       22.8425636486
  C         2.3306021579        9.8354157837       21.4044079014
  H         2.6282441352       11.9894795337       20.8344470514
  C         0.3803197317       10.3286539928       25.8820467832
  H        -0.1201222034       13.9808175968       25.5541391769
  C        -0.2522953838       12.2757290626       26.8850114606
  H         3.8962096258       12.2304609492       23.3570212056
  H         3.5856362554       12.6758829063       24.9903631132
  C         4.8595759010       14.1048792417       23.9635207638
  C         2.8768996193        9.2287811605       20.0997995917
  C        -0.2111080951       10.9189215803       26.9756812117
  H         0.5065779035        9.2455160397       25.8589165483
  C        -0.4929292858       12.7156480734       28.1581166585
  H         5.6085295692       13.6805865992       24.6523160958
  H         4.6379480356       15.1079155357       24.4109270972
  C         5.3489719828       14.3651560859       22.5509381168
  C         2.8214774289        7.7930572627       19.7908459782
  C         3.2181975392       10.1105134030       18.9470043216
  C        -0.5783941123       10.2412185249       28.2507502697
  C        -0.7808958215       11.6535829820       28.9905014584
  S        -0.5714822785       14.2586912104       28.8810727202
  H         5.8785968254       15.3225205087       22.6777073867
  H         4.6203285251       14.5943600593       21.8211501967
  C         6.2003213976       13.2418796211       21.9727786348
  N         2.3126405680        6.7965657931       20.6202739070
  C         3.1051404759        7.2939290607       18.5654615987
  C         3.6059936390        9.5502124197       17.7142407141
  H         3.3881124196       11.1804848877       19.0520975623
  C         0.5246142942        9.3813319404       28.7612232019
  C        -1.8673149742        9.4610510678       28.0437287848
  C        -1.0748002106       12.1710241356       30.2661813746
  C        -1.0674385451       13.5292877388       30.3318925034
  H         7.2180263418       13.1106316836       22.3805342102
  H         5.8467092224       12.2840735400       22.0285035520
  C         6.3065498137       13.5642554058       20.4937008701
  S         2.3894219810        5.3614466827       19.8578170664
  N         2.9880502674        5.8709354331       18.4675649280
  C         3.5455721570        8.0473409545       17.5091580262
  H         3.9809135415       10.2196569208       16.9938942885
  H         0.6582814673        8.6881623859       27.9886631284
  H         0.1745186055        8.8700740898       29.6730154254
  C         1.7631891885       10.1915736224       29.0112540971
  H        -1.9795615293        8.9044742063       27.0788864100
  H        -2.0058064596        8.7502783756       28.8368304192
  C        -3.0880786428       10.4513369214       27.8119831255
  H        -1.3543786930       11.5121150280       31.0308336536
  C        -1.5712594399       14.3218899402       31.5100224323
  H         6.2363476301       14.6788708338       20.3811943039
  H         5.3870794319       13.1724385387       19.9627498460
  C         7.6438298826       13.1514827114       19.9622243486
  C         3.6051674761        7.3759485791       16.2560309655
  H         2.0896702410       10.6835437984       28.1311413393
  H         1.6837289247       10.8955744409       29.8448144919
  C         2.9142685188        9.2359881136       29.4854514619
  H        -2.8564768846       11.0292012284       26.9415054101
  H        -3.3527116360       11.1600521421       28.6654776183
  C        -4.2744450223        9.7393261754       27.3836534552
  C        -1.5831619723       15.7047412855       31.7130365124
  C        -2.0968619911       13.5478648760       32.6719893768
  H         8.4520322432       13.6745318566       20.3768772875
  H         7.7472897266       12.1419168267       20.2248109681
  C         7.6085956980       13.3460913330       18.5192095143
  H         3.7792587580        6.3763824519       16.3539314625
  C         3.7324561110        7.9129373020       14.9357099256
  H         3.5503975855        8.7631878602       28.8739115225
  H         2.5104558926        8.4958229029       30.1035289676
  C         3.9142389460       10.0688213433       30.4568983820
  H        -3.9900047757        8.8276964235       26.7249035045
  H        -4.8491166895        9.3715809892       28.2247856282
  C        -5.2655215963       10.7081279162       26.7199662979
  N        -1.2794433316       16.6844328896       30.7863704668
  C        -1.8770222717       16.3120170173       32.9134698936
  C        -2.4226011683       14.1929031516       33.8881167871
  H        -2.0797108966       12.4705872464       32.6966227008
  H         6.6451738517       13.3523245675       18.0613191936
  H         8.1210752497       14.3505321046       18.3368560466
  H         8.3851476569       12.6123297321       17.9986252539
  S         3.9739647528        9.5418528369       14.3814321930
  C         3.5541166371        7.0030812722       13.8420681627
  H         4.2040379446       10.8098541217       29.7623252257
  H         3.4544626585       10.4773012146       31.3282648553
  C         5.2296985215        9.2301168186       30.6756207593
  H        -5.0142041744       11.0706628780       25.6637030677
  H        -5.3813900076       11.6096373573       27.4003779288
  C        -6.6676356316        9.9768644534       26.5524924018
  S        -1.2984856649       18.2111918652       31.5197235226
  N        -1.9694413360       17.7331792933       32.9088706355
  C        -2.3155586743       15.6584705308       34.0907353407
  H        -2.8100859452       13.5606176837       34.6293130626
  C         3.9734996219        9.0067631851       12.7382757931
  N         3.8876304381        7.6310059468       12.7739702663
  O         3.5176977950        5.7261427681       13.9848680187
  H         5.9830434066        9.8743779663       31.0997520740
  H         5.4788643092        9.0136326702       29.6229072233
  C         5.1445240013        7.9567528461       31.4834001598
  H        -6.6791408777        8.8624806070       26.4334017541
  H        -7.2631881466       10.0907655479       27.3521773924
  C        -7.4767876038       10.6181300694       25.4512457393
  C        -2.6699769311       16.3646384058       35.2454697934
  S         4.4807747730        9.8355081159       11.2650827523
  C         3.9843296642        6.8454640887       11.4917990182
  H         5.5926651270        7.9626059063       32.4221414999
  H         4.1298412076        7.6167396710       31.6428278627
  C         5.9540693010        6.7350564202       30.9438461140
  H        -7.0256361616       10.6603819614       24.4851459531
  H        -7.6993979434       11.6580545445       25.6735942877
  C        -8.8430606319        9.9521155891       25.2249250356
  H        -2.4030532161       17.4540765752       35.2223306947
  C        -3.1535033530       16.0200865501       36.4809523136
  H         4.6294889490        7.2270274322       10.7938964392
  H         4.3845357430        5.8461070056       11.7248098067
  C         2.6718145618        6.5941635796       10.8417679694
  H         7.0428896414        7.0300986870       31.1583707963
  H         5.7625722422        6.6132011494       29.8815368388
  C         5.7506274453        5.3651704904       31.6550673018
  H        -9.5454198404       10.3722423222       24.5360986914
  H        -8.7412726867        8.9387588979       24.6468663208
  C        -9.8967607436       10.0868153607       26.4089316412
  S        -3.7494988645       14.5126434963       37.0658703266
  C        -3.2357693576       17.0218932110       37.5869260734
  H         2.0209131206        7.4588900998       10.6834342078
  H         2.8630046318        6.1571457615        9.8261072710
  H         2.1397293059        5.9225329634       11.4607921491
  H         6.5067416625        4.6339110838       31.3507036324
  H         4.8673341503        4.8578433172       31.2208104067
  H         5.5575251506        5.4377776318       32.7168288843
  H       -10.8704497698       10.2849684400       25.8718624986
  H        -9.5748676465       10.7996695031       27.1697714138
  H        -9.9102537140        9.1027717642       26.8693107611
  C        -4.0112891833       15.2281269189       38.6613051088
  N        -3.6735486938       16.5519539960       38.7357345864
  O        -3.0500286851       18.2167146216       37.3133840928
  S        -4.7308553713       14.3542200260       40.1004031677
  C        -3.6718997677       17.3331207577       39.9051809450
  H        -4.0296585197       18.3047165283       39.5775784991
  H        -4.3421797176       16.8969801168       40.6530306647
  C        -2.1870099813       17.4272974369       40.4583905015
  H        -1.8738760416       16.4208797170       40.7238816355
  H        -1.4946464545       17.6941978754       39.6649817589
  H        -2.2660780551       18.0003168449       41.3366536291
