352
i=
  H         2.3426157825        2.2875488690       13.8381921850
  C         3.2371223187        2.4386586777       13.3182437645
  H         3.8057377958        1.5730143228       13.0725422426
  C         3.0766094200        3.3998813567       12.1143951097
  C         3.9330371298        3.1977761848       14.4659338991
  C         4.2178039738        3.5711919496       11.0439782792
  H         2.8201947884        4.3951868829       12.4706648551
  H         2.0712042424        3.2325203703       11.6600148804
  H         4.2320970039        2.4815485566       15.1760754002
  H         3.2529917814        3.9462853683       14.8916899177
  H         4.8824617079        3.6140358282       14.1667377977
  C         4.6027913328        2.2214583943       10.4615687405
  H         3.8908444649        4.1236856573       10.2530422053
  H         5.0671447390        4.1006965433       11.5154774914
  C         5.2447159043        2.2906383997        9.0537871178
  H         3.6977034036        1.6773095212       10.4777111058
  H         5.2829065412        1.8326619394       11.1539165562
  C         6.5532397598        3.1202176859        9.0316435648
  H         4.5288127781        2.5748152842        8.3490816109
  H         5.4916350516        1.2413088389        8.7567531516
  C         7.7828731519        2.2757002120        9.5521256505
  H         6.7573785925        3.4443080323        8.0108997311
  H         6.3109591541        4.0715235055        9.5659186116
  C         9.2022734492        3.0359725774        9.5221158564
  H         7.8314754313        1.3469357626        8.8996718864
  H         7.6239276795        1.8991746203       10.5102145612
  C         8.9209990910        4.3590658602       10.1968120857
  C         9.5043531162        3.7260445985        8.1826289846
  C        10.4386568432        2.2589243566        9.9617823580
  C         9.0177903370        5.4315920711        9.3071729683
  C         8.5605543473        4.7121412219       11.4874415050
  C         9.4258293213        5.0641738534        8.0250338120
  C         9.8188020706        3.0960733490        6.9545037752
  H        10.0345404338        1.5414836753       10.6802035645
  H        10.8146889953        1.6292701114        9.2570538559
  C        11.7012896768        3.0417274733       10.3871576112
  S         8.6049169208        6.9389360663       10.1700718199
  C         8.3976812061        6.0590515566       11.6368428130
  H         8.4515066424        3.9864615558       12.2545762456
  C         9.8341245826        5.6386076566        6.8829857967
  H         9.9218883559        2.0432454540        7.1109967904
  C        10.2432168988        3.6828949729        5.8105586923
  H        11.4665760643        3.9814524034       10.7763215106
  H        12.3047584516        3.1554646039        9.4708802290
  C        12.6210949038        2.2644394375       11.3206053259
  C         8.0235663624        6.7166695845       12.9475434786
  C        10.2666731239        5.0305275912        5.6939697715
  H         9.8391443087        6.7262227461        6.8135295536
  C        10.7147453311        3.2397399083        4.5704379507
  H        13.6947938021        2.5794360678       11.0771485656
  H        12.5120126192        1.2052051362       11.2508564026
  C        12.2343941693        2.5494423711       12.8074063836
  C         7.9844808528        8.0517487292       13.1178308688
  C         7.5199166012        5.7885034998       13.9970315177
  C        10.8210697543        5.7298721574        4.4935813467
  C        11.0121513144        4.3213937874        3.7992081873
  S        11.0267268379        1.7538984303        3.8599511088
  H        12.1478584262        3.6540701300       12.7560287915
  H        11.2653920397        2.1283470538       12.8187495138
  C        13.2411131051        2.1797069184       13.8797938640
  N         8.3646688868        9.0369337926       12.2207765322
  C         7.6702913758        8.6348247528       14.3044889567
  C         7.3295118176        6.2977188368       15.2588394765
  H         7.1272240665        4.8139354490       13.7324033827
  C        12.1791572331        6.4603555342        4.7120364327
  C         9.8242208497        6.7433563238        3.8050101985
  C        11.3694714236        3.9250064358        2.5275831528
  C        11.4275576569        2.5808339933        2.3919682692
  H        14.0184838479        2.8957282884       13.7275943180
  H        13.6697947534        1.1500278468       13.7424060524
  C        12.6011703128        2.1353108808       15.3058151169
  S         8.2372156330       10.5004677276       12.9272871257
  N         7.7485062735        9.9781503372       14.4014504273
  C         7.3110336487        7.7756506341       15.4612065396
  H         7.0584074040        5.6357536575       16.0516698158
  H        11.9318319431        7.2215912017        5.4511702964
  H        12.3377021336        6.9856976187        3.7479261878
  C        13.3827974473        5.5231279611        4.9628899435
  H         9.7957255562        7.6389730140        4.4203259720
  H        10.3483039413        7.0984025251        2.8958107663
  C         8.4279493815        6.1020127018        3.5123820502
  H        11.5330368405        4.6873752871        1.7364682803
  C        11.6526759110        1.8752360910        1.1145942201
  H        11.9242744445        2.9950633409       15.3785459126
  H        12.0747431511        1.1984504582       15.4750242308
  C        13.5759428116        2.3362974482       16.4776023617
  C         6.9606718395        8.3724610735       16.6795992931
  H        13.1605834360        5.0532456582        5.8394684143
  H        13.5120628652        4.8459414848        4.1325809529
  C        14.7396487030        6.2752978797        5.1721859558
  H         7.8782597808        6.4824574049        4.3217255605
  H         8.3956420155        4.9790572425        3.6919195665
  C         7.6532165714        6.4701712943        2.2763868530
  C        11.7347074105        0.4586051176        0.9565702392
  C        11.7553163809        2.6712133044       -0.1073767464
  H        14.2344813283        3.1635616022       16.2721202438
  H        14.2348767642        1.4945722226       16.5638835487
  C        12.7250104759        2.6649947865       17.7348057333
  H         7.0989566103        9.3716121259       16.6855057607
  C         6.5049254796        7.9024300007       17.9139458484
  H        14.7000421923        6.6256865463        6.1905893366
  H        14.7926432947        7.1055876576        4.4785574054
  C        15.9078301000        5.2975809088        5.0018495956
  H         7.4629895012        7.4899690747        2.2683087318
  H         8.2396999921        6.2378032073        1.3405236073
  C         6.3294133891        5.7173715699        2.1146583369
  N        11.6521856207       -0.4776256839        1.9546520023
  C        11.9800838632       -0.1550231485       -0.2552201117
  C        12.0137438062        2.0482068451       -1.3223773070
  H        11.6385525074        3.7187361855       -0.1931887644
  H        11.7182982411        2.2639178770       17.6135800229
  H        12.5510807257        3.6987633697       17.9527699398
  H        13.1485070884        2.1308052436       18.6113030301
  S         6.0335525949        6.3149159462       18.4407478617
  C         6.3460930362        8.9768299768       18.9980352197
  H        16.0410296691        4.7144321667        5.9266263200
  H        15.6833176636        4.5329892843        4.3118519244
  C        17.2663001789        5.9199090497        4.6939322693
  H         6.1764741134        4.9771463177        2.8811057776
  H         6.3403636445        5.2028019319        1.1406660336
  C         5.2210969092        6.7801343193        2.1524991968
  S        11.5564814213       -2.0116476549        1.2951633202
  N        11.9798749586       -1.5455461056       -0.2269324458
  C        12.1748685763        0.5505056408       -1.4256939756
  H        12.1915835596        2.6895356732       -2.1711575182
  C         5.9550676252        7.0147951201       20.0945672463
  N         6.0988073296        8.3388605674       20.1476238372
  O         6.6809069446       10.1904378297       18.8601710683
  H        17.4534023620        5.7645161360        3.6661736762
  H        17.1543382133        7.0312373227        4.6821080481
  C        18.4604730299        5.4685374598        5.5310341744
  H         4.2853377289        6.2664790687        2.2842930920
  H         5.2474349865        7.3964324700        3.0857556478
  C         5.1929544747        7.8435778259        1.0304717039
  C        12.4009826941       -0.1554042236       -2.6010090686
  S         5.3691791900        6.1806915740       21.4916441521
  C         6.0677719273        9.0803628829       21.4775625773
  H        18.2025955217        4.4783728271        5.8516222451
  H        19.3565448287        5.4195282867        4.8998851910
  C        18.6656380501        6.2983112432        6.7853201562
  H         4.6187980471        7.4378880962        0.2108546860
  H         6.1417043057        8.0933729341        0.5184926965
  C         4.4891114342        9.0819731292        1.6010370921
  H        11.9346545902       -1.1986547601       -2.6367531046
  C        12.8918309772        0.1534591792       -3.8149214852
  H         5.3254687467        8.6183738529       22.1821622800
  H         5.8339984752       10.1062900485       21.4126927526
  C         7.4640967218        8.9799900386       22.2138760630
  H        17.6709509686        6.7471662381        7.1324997230
  H        19.2872682659        7.1740139366        6.5828157700
  C        19.2918429954        5.5627584827        7.9665511462
  H         3.5685847275        8.7242228881        2.0286673097
  H         5.1028317373        9.3722199769        2.4724707768
  C         4.3093110289       10.2053863796        0.5715822767
  S        13.5622001421        1.6592288941       -4.2859814939
  C        12.9389127879       -0.9253228671       -4.8368205714
  H         7.4272702768        8.3277803995       23.0776005509
  H         7.7914535752        9.9495200448       22.6634218096
  H         8.3069878618        8.7129678733       21.5483738442
  H        18.8695669134        4.5622231268        8.1707520611
  H        20.3556920360        5.3039764864        7.7471956770
  H        19.2730534412        6.1291149420        8.9026105115
  H         3.9796324795        9.8497054219       -0.3759520461
  H         3.5243170770       10.8174237551        1.0145320291
  H         5.2661905577       10.7208827999        0.3495919901
  C        14.1471680058        0.7740167759       -5.6912572056
  N        13.6817443036       -0.4948860637       -5.8388843565
  O        12.3433831526       -2.0523675870       -4.7495497527
  S        14.7268255375        1.5096702328       -7.1735546435
  C        13.8411434233       -1.3258707789       -7.0296464490
  H        13.7992128142       -2.3434912379       -6.7387607465
  H        14.7920869339       -1.1904290175       -7.4677900882
  C        12.7859277185       -1.0922466713       -8.0824865798
  H        13.0804859422       -0.6224294980       -9.0203389445
  H        11.9962713908       -0.3943829146       -7.7179113596
  H        12.3320979054       -2.0537312048       -8.3925062222
  H        -2.7590334986       15.7014970463       16.0155391636
  C        -3.0783913154       14.8368291244       16.6687264361
  H        -3.8022009636       15.1225350253       17.4591073760
  C        -1.9695628214       14.1659453353       17.4420125718
  C        -3.7995981712       13.9447980602       15.7129247209
  C        -2.4283698610       13.9545508581       18.9332364357
  H        -1.8390900165       13.2091132955       17.0247414343
  H        -1.0652446123       14.6830315664       17.2812261116
  H        -3.2550496864       13.6761376792       14.7916582062
  H        -4.1759986832       13.0123981070       16.1561731209
  H        -4.7618131486       14.3218510489       15.3501745667
  C        -1.1717459932       13.7275919421       19.8791119092
  H        -3.1512738181       13.1101406853       19.2353577841
  H        -2.9071189774       14.8617381358       19.3256896507
  C        -1.7019669341       13.4334201457       21.2701070365
  H        -0.5595603707       13.0264098465       19.4204450583
  H        -0.5386939507       14.5664127905       19.8615053250
  C        -0.6327698895       12.9193570314       22.3070571239
  H        -2.4100696396       12.6144282507       21.2365510493
  H        -2.2506994284       14.2763207118       21.6038741454
  C         0.5806138975       13.8864180577       22.4710603468
  H        -1.0818241880       12.7822961607       23.2748119302
  H        -0.2065248628       11.9316828801       21.9475972110
  C         1.7198668255       13.3306511935       23.2982647973
  H         0.9793397276       14.2847991837       21.5004136849
  H         0.2904854875       14.8147448801       22.9523018380
  C         2.1312522967       11.9845802011       22.6793500588
  C         1.2215638208       12.5618826749       24.5358234973
  C         2.9136924188       14.3583823593       23.4123514689
  C         1.7035709051       10.8246476528       23.3555043477
  C         2.6841640414       11.5413738201       21.4707218492
  C         1.1577760811       11.1912504656       24.5463475374
  C         0.7469387102       13.1805096223       25.7496675146
  H         3.2436887532       14.7415244006       22.4301721953
  H         2.5084823980       15.2540216476       23.8649090729
  C         4.1300419978       13.8534706669       24.1757245099
  S         2.0165960045        9.2978719246       22.5928798965
  C         2.6496599034       10.2143113938       21.2609060629
  H         3.1874269650       12.2167384178       20.8345587669
  C         0.7827529363       10.5512869096       25.7059992955
  H         0.8189335215       14.2109453059       25.7502816414
  C         0.2824445422       12.5454407107       26.8568121274
  H         4.5517554836       12.9469424120       23.7613670152
  H         3.7962116782       13.5328346414       25.1353100561
  C         5.3583280865       14.7742132770       24.3025998322
  C         2.9567620997        9.5417223317       19.9637733619
  C         0.2587132554       11.1580686474       26.8816002991
  H         0.8081543451        9.4893417649       25.8100082592
  C        -0.2391889643       12.8715040547       28.0985518451
  H         6.0197428100       14.5852425427       25.1068737182
  H         4.9630557485       15.7859816754       24.5717292130
  C         6.0051417028       15.0887781448       22.9837610566
  C         2.8023522765        8.1501834078       19.6283994562
  C         3.3272857933       10.3871219717       18.8351074065
  C        -0.1626769285       10.4223698857       28.0899400221
  C        -0.4996119385       11.7704306048       28.8473559625
  S        -0.5849441514       14.3167620928       28.9555077245
  H         6.5694763588       15.9993811186       22.9546952865
  H         5.2957000239       15.1823044408       22.1709933061
  C         7.0094378413       13.9474666312       22.7004041859
  N         2.3289126503        7.1135698983       20.4840687331
  C         2.8813966582        7.6370627739       18.3666046323
  C         3.4921693910        9.8843930633       17.5301742624
  H         3.4060546219       11.4455043669       18.8803091946
  C         1.0428049123        9.6849228931       28.8964590127
  C        -1.3934305041        9.5500831530       27.7981718473
  C        -1.0182356363       12.0846078021       30.1111190162
  C        -1.0799329948       13.4261113851       30.3046299288
  H         8.0081680093       14.3039987012       22.6420645311
  H         7.0934783535       13.2500875770       23.5077389026
  C         6.7964589295       13.3656489273       21.2971383638
  S         2.3154575664        5.7296238593       19.6419448465
  N         2.7338339930        6.3009935327       18.2193439602
  C         3.3031592458        8.4322658335       17.2522508071
  H         3.8740470757       10.5886785455       16.8158397430
  H         1.5641878167        8.9149875396       28.2541982706
  H         0.6335240829        9.0548634961       29.7164256734
  C         2.1608884130       10.5880863181       29.4550319120
  H        -1.2941152926        8.8112965928       27.0501842576
  H        -1.5458550445        8.9385655236       28.6551578150
  C        -2.7300335907       10.2511469183       27.4914705793
  H        -1.2421649345       11.2897839474       30.7241154589
  C        -1.4245659463       14.0038963744       31.6507667310
  H         5.7087487065       13.3981970082       20.9176704327
  H         6.8805930421       12.3002549546       21.3339748598
  C         7.6914260340       13.9729629526       20.1867031492
  C         3.7559393114        7.8711449231       16.0653164444
  H         2.4432170788       11.4278929834       28.7777257539
  H         1.8325855569       11.1070855226       30.3528988491
  C         3.4267503813        9.7915197583       29.9265893589
  H        -2.7302362414       10.8228745279       26.5194445862
  H        -2.9205319734       11.0563139164       28.2692092270
  C        -3.9133725799        9.2639893314       27.2884896067
  C        -1.4977817601       15.4212130783       31.8918196034
  C        -1.6928732492       13.2175134009       32.8389513731
  H         7.4145248416       15.0272072044       20.2051668080
  H         8.6838769706       13.7923113538       20.4781752206
  C         7.5244633727       13.4847166673       18.7626489171
  H         3.7863790324        6.7579563405       16.0336209054
  C         4.0508806707        8.3819782723       14.7710870048
  H         3.8717843323        9.3632517824       29.0628767666
  H         3.2657839771        9.0325437746       30.6900734854
  C         4.4642213407       10.7536825814       30.5403166954
  H        -3.6737366616        8.7320446366       26.3888790230
  H        -3.7876287276        8.4777187823       28.0685634440
  C        -5.3077355374        9.8398358707       27.3522964634
  N        -1.2675928681       16.4152512018       30.9013220325
  C        -1.8012866387       15.9535590571       33.1553300944
  C        -2.0057395201       13.7439157319       34.0405179620
  H        -1.5931310487       12.1655535489       32.7031294635
  H         6.5075746288       13.7385365529       18.3871491481
  H         8.2361413704       13.9226005320       18.1376271156
  H         7.5797605236       12.4258511547       18.5388023317
  S         4.1233028138       10.0483203979       14.2736260186
  C         4.2573412702        7.3672367544       13.6834804016
  H         4.4090852715       11.6986335618       29.9990905699
  H         4.2296328909       11.0253011945       31.5481703403
  C         5.8874200122       10.2224147065       30.4200050545
  H        -5.4178001239       10.7346646647       27.9600909513
  H        -5.9012192597        9.0748016384       27.9150684890
  C        -5.6619565199       10.1357248760       25.9104151859
  S        -1.3028266889       17.8426051353       31.6687157096
  N        -1.6789357421       17.3366798284       33.1231735603
  C        -2.1345416560       15.2038149760       34.2282823186
  H        -2.1590034158       13.0628646000       34.8296992636
  C         4.6751175628        9.3908805529       12.6941443414
  N         4.5668813462        8.0456246760       12.5560864473
  O         4.1963054519        6.1473843513       13.8697141840
  H         6.4526500305       11.0271706099       30.8501253037
  H         6.1794340811       10.1335515178       29.4293516202
  C         6.1460147625        8.9170522481       31.1094059811
  H        -4.8830024184       10.7681855562       25.5265545419
  H        -5.6114187134        9.1823617469       25.3594713709
  C        -7.0549058618       10.6835121863       25.6188252746
  C        -2.4515322814       15.8650283813       35.4433132417
  S         4.6166754138       10.2407217832       11.2020361236
  C         4.5452854239        7.3892704311       11.2797483683
  H         6.7834746242        9.0770437691       31.9399181774
  H         5.2247279532        8.7011390181       31.6218990160
  C         6.6669596923        7.7452582847       30.2846245109
  H        -7.1008873023       10.8706151386       24.5148360948
  H        -7.1523797150       11.6267532393       26.1687992501
  C        -8.1876951845        9.7126445600       25.9285707672
  H        -2.3608194411       16.8934463533       35.5296236576
  C        -2.9283228502       15.3707765253       36.6722101203
  H         5.3159859164        7.6986043733       10.5870127193
  H         4.6506246241        6.3055922969       11.4780688027
  C         3.1691779520        7.4050405808       10.6354772272
  H         7.6236027271        7.9284475433       29.7535674365
  H         6.0745828539        7.5314184330       29.4339564563
  C         6.7643886462        6.4023724950       31.0493485678
  H        -8.0898445619        8.9308147647       25.1686223905
  H        -8.0591265249        9.3212193695       26.9273278807
  C        -9.5937584598       10.3510060817       25.8279922953
  S        -3.3404921116       13.7796601225       36.9537325024
  C        -3.1427059741       16.2919308321       37.8467644486
  H         2.9814630460        8.1029794429        9.8491545120
  H         3.0247437061        6.4628756453       10.0965069433
  H         2.4343000106        7.5567794587       11.4103317526
  H         7.6074700148        6.5073210826       31.7188649423
  H         6.7985030979        5.4740202217       30.4317701122
  H         5.9571465300        6.3179408917       31.7723096213
  H        -9.7404785964       10.8774877215       24.9505372327
  H        -9.7745178021       10.9943716873       26.7057240177
  H       -10.4110604700        9.5914626440       25.7322318746
  C        -3.8776010919       14.3130423195       38.5679708209
  N        -3.7560058678       15.6323239201       38.8193100958
  O        -2.9148270467       17.5357538108       37.7470768794
  S        -4.8657247927       13.3534964079       39.6319881482
  C        -4.0610025847       16.2241417699       40.1313718043
  H        -4.4727723223       17.2145575437       39.7467073216
  H        -4.7872376645       15.6502013671       40.6732557703
  C        -2.8263383216       16.4356339545       41.0004737418
  H        -2.4558492878       17.4003236396       40.9456477875
  H        -2.9352512378       16.1207938107       41.9953459091
  H        -2.0721007610       15.7422254607       40.6792797287
