352
i=
  H         3.9031028604        1.2897827062       13.3780476677
  C         4.2169692124        2.3157726923       13.2380684733
  H         5.2710117686        2.4023925458       13.0795627159
  C         3.5623379059        2.9852441332       11.9995806161
  C         4.0018640545        3.0503636837       14.5449257910
  C         4.4751301397        3.0358865141       10.7549444609
  H         3.2196940829        4.0098337412       12.2185603260
  H         2.6863185187        2.4549921475       11.7692651014
  H         4.4654522349        2.5509751382       15.4209889030
  H         3.0230241827        3.3351548910       14.8594807709
  H         4.5574689423        3.9771236619       14.5603370616
  C         5.0795975226        1.6796596425       10.3470420607
  H         3.7361406542        3.3536185146        9.9685985732
  H         5.2182243493        3.8156890644       10.7793234135
  C         5.4911736923        1.6146531060        8.8133617828
  H         4.2876083467        0.9380340864       10.5838881752
  H         6.0169466252        1.6074936927       10.9251491009
  C         6.7130043280        2.3937126731        8.5370561809
  H         4.6054903725        2.0631783194        8.3424362998
  H         5.4376431270        0.6994531984        8.2497108326
  C         8.0308426735        1.7399357560        9.0973553167
  H         6.7044867794        2.5513095881        7.4593101254
  H         6.6020575369        3.4262209837        8.9167966071
  C         9.1716996686        2.8318093550        9.3467007995
  H         8.3736964215        1.0016111834        8.4164451064
  H         7.9248282031        1.3462384038       10.1166055373
  C         8.7118059957        4.0831408740       10.0616463487
  C         9.5855109246        3.5656592936        8.1293061027
  C        10.4047680442        2.1355242246        9.9701222725
  C         8.8948177104        5.2082063416        9.2773931176
  C         8.2031293126        4.4594819489       11.3549748751
  C         9.3409370215        4.8894804424        8.0461970349
  C        10.0275959176        3.0394711139        6.9248091699
  H        10.0782067664        1.6576232695       10.8887835068
  H        10.8480918057        1.2864776160        9.4277289661
  C        11.5832883293        3.0624259879       10.1718590962
  S         8.5597874569        6.7116500389       10.0628025548
  C         8.0242083855        5.8153133901       11.4631290142
  H         7.9065731748        3.6635757164       12.0137324568
  C         9.7608159979        5.5875900580        6.8933657511
  H        10.2695179562        1.9428361334        6.9924320467
  C        10.3603485389        3.7294506202        5.7768824788
  H        11.3316862907        4.1309861677       10.2778474426
  H        12.1619725564        3.1475404653        9.3029038317
  C        12.4777150295        2.5439572078       11.3214697235
  C         7.6331810664        6.5317681999       12.7463845480
  C        10.2875137531        5.0442788124        5.6842248599
  H         9.5590396905        6.6536653151        7.0088049619
  C        10.7924831960        3.3231510699        4.5629561282
  H        13.4961554874        2.7109948780       11.0590474147
  H        12.4678873326        1.4611942506       11.4493686784
  C        12.0465022565        3.1725895260       12.5977480092
  C         7.8826679483        7.9625750209       13.0226629267
  C         7.2472017869        5.6952632275       13.8734955038
  C        10.7201604820        5.7389258586        4.4486404583
  C        11.0466195291        4.4072549073        3.8034911361
  S        11.0371614078        1.7955460256        3.8085826963
  H        12.7252381350        4.0049736463       12.8570647904
  H        11.0009191476        3.6807610111       12.5596653136
  C        12.0289906564        2.2441135421       13.8099761668
  N         8.1380868700        8.9910949807       12.1136342459
  C         7.5414572568        8.5060246473       14.2558039319
  C         6.9122800849        6.2333333842       15.1068426353
  H         6.9136402682        4.6716956998       13.7501676664
  C        11.9316566211        6.6478362729        4.7240735365
  C         9.6163125268        6.4414662560        3.6562933099
  C        11.4255553909        3.9459271197        2.5211207561
  C        11.4089308588        2.6094114733        2.3996982505
  H        12.9947089829        1.6542455407       13.8650682169
  H        11.2330673273        1.5389692173       13.6162311273
  C        11.8269989738        2.9075408286       15.2067177324
  S         8.1074775503       10.4323963429       12.8324121948
  N         7.5290762506        9.9058079492       14.2905249585
  C         7.1269135858        7.6916140051       15.3661989141
  H         6.3063146674        5.7136556175       15.8253170737
  H        11.7021754205        7.7006266119        4.9393034187
  H        12.4463022233        6.7804847150        3.8034950528
  C        12.9276388301        6.0773256893        5.7132851294
  H         9.1684390410        7.3410331956        4.1411266329
  H         9.9006551316        6.8475864792        2.6588891098
  C         8.4165958834        5.5410952106        3.3517387059
  H        11.5767750427        4.5887053317        1.7147858803
  C        11.6846305737        1.8543230595        1.1559477600
  H        12.1566943677        3.9498869038       15.2242904498
  H        10.7125193959        2.9165513546       15.3496797288
  C        12.4229905736        2.0608770669       16.3740543558
  C         6.9122267678        8.4242470121       16.5725994799
  H        12.3115256394        5.9464059162        6.6116138709
  H        13.1688644478        5.0524872211        5.3720161850
  C        14.1924954503        6.8688611357        5.7149588018
  H         7.8791505242        5.4906520560        4.3011138213
  H         8.6204717001        4.6546249570        2.8272609958
  C         7.4910116610        6.2283780487        2.3270218383
  C        11.7200927460        0.4555627264        0.9878762424
  C        11.7707910102        2.5685732152       -0.1092474975
  H        13.0962401317        1.3018939846       16.0168194851
  H        11.5558671472        1.6540246913       16.8739481533
  C        13.2677605585        3.0631370647       17.2174251774
  H         7.2881041712        9.3817257858       16.7034602381
  C         6.7427223449        7.9763266045       17.8599634608
  H        13.9715879554        7.8262645872        6.2263643827
  H        14.5162576013        7.1287697565        4.7161416998
  C        15.2548075788        6.0280071371        6.4130135175
  H         7.3876786094        7.3297336740        2.5462710467
  H         7.9632173778        6.1954322653        1.3314938831
  C         6.0468445683        5.7131569630        2.3735337107
  N        11.4487976057       -0.4575889926        1.9579268592
  C        12.0936023228       -0.1511596932       -0.2117780009
  C        11.9112171486        1.9672410224       -1.3543147142
  H        11.7578167973        3.6085948823       -0.1463862309
  H        13.3588973485        2.7051177135       18.2775924184
  H        12.7696696309        4.0330530666       17.3284338944
  H        14.2529283314        3.2595338135       16.8060112895
  S         6.5989066752        6.3875871581       18.4292127058
  C         6.5750708605        9.0350285221       18.9629303498
  H        15.7397799251        6.5253818008        7.1909672997
  H        14.7604012594        5.1817449816        6.8784542810
  C        16.3578844203        5.5698984885        5.4683019755
  H         5.7827990802        5.1293093299        3.2680298838
  H         5.8342203691        5.1256600813        1.5026919636
  C         5.0983513082        6.8882498541        2.2324269513
  S        11.6969513693       -1.9882361904        1.3753205425
  N        12.1097554335       -1.5523907226       -0.0940767691
  C        12.2905933067        0.5183843670       -1.4317618296
  H        12.0937667446        2.6409163400       -2.2235137481
  C         6.4513156775        7.0016542946       20.0182321047
  N         6.3536768757        8.3844949846       20.1272695402
  O         6.5411967851       10.2502463908       18.7507851302
  H        16.0215458794        4.7585871443        4.8493285643
  H        16.6641801322        6.4235943543        4.8600188731
  C        17.5188308798        5.0982270193        6.3635676213
  H         4.0357178772        6.4910974561        2.4147950489
  H         5.1845621207        7.5743735954        3.0583273933
  C         5.0764836293        7.8271512325        1.0091687303
  C        12.7115029364       -0.1869676078       -2.6000859968
  S         5.9942358702        6.0321513080       21.3606722283
  C         6.3673419863        9.1126129712       21.4157847519
  H        17.0017115730        4.7061849038        7.2923995189
  H        18.0256264702        4.2861153518        5.8955146114
  C        18.4656662427        6.2170419765        6.8215216727
  H         4.9653017660        7.2940623091        0.0571220557
  H         6.0721378872        8.2571817798        0.9222023986
  C         4.0352222148        8.9306304141        1.2480048741
  H        12.4120726778       -1.2392768789       -2.4688410100
  C        13.1265274168        0.1617002896       -3.8716298478
  H         5.7553117052        8.6104356602       22.1144459156
  H         5.8479822192       10.1118886969       21.3244123645
  C         7.8228313581        9.1679473464       21.8168217029
  H        17.8397068923        7.1004744462        7.1348020041
  H        18.8982210993        6.6241832577        5.9305275520
  C        19.5746113695        5.8494724646        7.8191027318
  H         3.8205129935        9.3923367435        0.3206459986
  H         3.0942067406        8.5549019820        1.5520227578
  C         4.3529625204       10.0143048813        2.2698232126
  S        13.4005344710        1.7688861915       -4.3422124463
  C        13.3549211034       -0.8870582726       -4.8150133663
  H         8.1858841494        8.1482423316       22.1886156894
  H         8.0192935147        9.9118188736       22.6431457428
  H         8.3657342890        9.4588393116       20.8936585619
  H        19.1696499875        5.5162142141        8.8158975514
  H        20.2772827493        5.1020466957        7.4512935903
  H        20.1862334350        6.6589925650        8.0819559055
  H         5.3215549068       10.4609433177        1.9316233862
  H         3.6421750922       10.8751973602        2.2353981450
  H         4.4297000213        9.7795315522        3.3402714943
  C        13.8406668553        1.0883696236       -5.8700123645
  N        13.8379954780       -0.2806049728       -5.9095443860
  O        13.2912842111       -2.1174467287       -4.6121638155
  S        14.5079719647        1.8984728993       -7.2614918640
  C        14.0791334276       -1.0292957976       -7.1047767535
  H        14.3016773192       -2.0804489357       -6.8414122724
  H        15.0027940412       -0.6797967313       -7.6583182069
  C        12.7945672891       -0.9182542130       -7.9731363854
  H        12.8976791336       -1.5913501545       -8.8698762692
  H        12.6923462702        0.0684631487       -8.3842206665
  H        11.8816623528       -1.3241365319       -7.4869407665
  H        -2.6541979787       14.8926592543       15.1466021041
  C        -2.8045885361       14.0762940100       15.7717925590
  H        -3.8410724777       14.1196436182       16.0573597842
  C        -2.0205224900       14.3046570762       17.0172387817
  C        -2.4670680266       12.8489203386       15.0498637547
  C        -2.7197027187       13.9668954739       18.3708854133
  H        -1.0654304678       13.7638623674       16.8594894319
  H        -1.6546834682       15.3858891823       17.0518728319
  H        -2.2464106818       12.0920816898       15.7409730073
  H        -3.2064906293       12.5755602619       14.3450398821
  H        -1.5231214224       12.9677896183       14.5727432560
  C        -1.7042933563       13.7572666794       19.4454880725
  H        -3.2283258276       13.0828638325       18.3005211195
  H        -3.3678018315       14.8050271348       18.5517882650
  C        -2.3027412879       13.4627966703       20.7795678361
  H        -1.2285183252       12.7902300118       19.1586962062
  H        -0.9270717893       14.5272836802       19.4173598276
  C        -1.3285782829       12.9255998112       21.8476646577
  H        -3.1311901091       12.7581631978       20.8557608212
  H        -2.7309482767       14.4134871807       21.1921371551
  C        -0.1856071651       13.8494362712       22.3153049211
  H        -1.9024082412       12.6741939565       22.7531392286
  H        -0.8864775865       11.9879361775       21.5111001430
  C         1.0821973122       13.1861452023       22.9327852513
  H         0.0887776035       14.4357084092       21.4303364070
  H        -0.5654166712       14.6157567506       23.0359512927
  C         1.5998435448       11.8823202055       22.2352987619
  C         0.7545768380       12.4276987566       24.1857826604
  C         2.3656476151       14.0618802280       23.0744638082
  C         1.4674467784       10.7684286848       23.0116274086
  C         2.0948355965       11.5251918482       21.0043176096
  C         1.0311024034       11.1326921660       24.2629058114
  C         0.3066598535       13.0046040208       25.3509129979
  H         2.6296391285       14.4980865826       22.1673932731
  H         2.0648818216       14.7943700371       23.7905270041
  C         3.6604517845       13.3922134136       23.6506229506
  S         1.9474628578        9.2783499361       22.3151642001
  C         2.3640483478       10.1770442652       20.9395412022
  H         2.2390607301       12.2762379491       20.1916471635
  C         0.7733274836       10.4672526518       25.3994331769
  H         0.1246428613       14.0857148627       25.3814563062
  C        -0.0169920785       12.3195758527       26.5188331299
  H         3.9738694820       12.4620835120       23.1464999355
  H         3.4136574584       13.1605933523       24.7576502618
  C         4.9431385234       14.2817649879       23.6140664089
  C         2.8497499517        9.5840245225       19.6234506941
  C         0.2202470833       11.0124312198       26.5688233166
  H         1.0128227567        9.3960411853       25.2417063274
  C        -0.3977153730       12.6991159647       27.7916362598
  H         5.6867795306       13.8945911426       24.2523419022
  H         4.6320936085       15.2606752398       23.9585335195
  C         5.4943303992       14.3170970621       22.1655445034
  C         2.9703613745        8.1902443329       19.3860842826
  C         3.4004335590       10.4808825373       18.6128960229
  C        -0.0559671486       10.3342294567       27.8493198780
  C        -0.4007028615       11.6482660920       28.6270366158
  S        -0.7189670366       14.1375314042       28.7278501478
  H         5.9511286490       15.2552817568       22.0930426026
  H         4.6491790920       14.2598708158       21.4842571534
  C         6.5065609491       13.2455786029       21.7009149913
  N         2.7459815828        7.1389541208       20.2840576866
  C         3.2755286563        7.6768960350       18.1329702715
  C         3.6565930429        9.9390906113       17.3003613214
  H         3.6034054624       11.4667004428       18.7470859828
  C         1.2116589659        9.4859194005       28.2538890905
  C        -1.2788331579        9.3678657400       27.6567166792
  C        -0.8024740795       11.9095038403       29.9452932890
  C        -0.9478130135       13.2786360654       30.1538186482
  H         7.4498673494       13.5112928709       22.1352183633
  H         6.1627980521       12.4211073403       22.1519288489
  C         6.5655844300       12.9440289761       20.1220974473
  S         2.9432887039        5.7046463030       19.5122890075
  N         3.3408206966        6.2983708697       18.0805786613
  C         3.5123405798        8.4698248079       17.0362612977
  H         3.8966382402       10.5949194983       16.4709495924
  H         1.8163956510        9.1951529384       27.4214890377
  H         0.7723029090        8.5955473521       28.6990965137
  C         2.1014417281       10.1617770979       29.2421140313
  H        -1.1049629415        8.7055760238       26.8119948874
  H        -1.4268495403        8.7664185814       28.5911345218
  C        -2.6039004735       10.1153660552       27.4242923650
  H        -0.9235285602       11.0489925706       30.6713707683
  C        -1.1521587536       13.8848241827       31.5191115868
  H         5.5923384791       12.6799047107       19.7707862896
  H         7.2648862935       12.0548036748       20.1408584288
  C         7.1428997719       14.1336747974       19.3497534035
  C         3.6121501821        7.9112914393       15.7417635842
  H         2.5646776076       11.0160077366       28.8016962345
  H         1.5552482851       10.5429453421       30.0859371237
  C         3.1665004532        9.2333700814       29.8641316081
  H        -2.5860948300       10.7468444137       26.5219788020
  H        -2.6682033969       10.7400128824       28.3275827823
  C        -3.8008873493        9.1230399581       27.3619111752
  C        -1.2685313443       15.3048922337       31.7545811100
  C        -1.2605213413       13.0432847086       32.7769122900
  H         6.5868447479       15.0569689447       19.4315808947
  H         8.1965815275       14.2926497253       19.6815290874
  C         7.1612848069       13.7090770404       17.8439582106
  H         3.2848059195        6.8748986551       15.6795126047
  C         3.9385847983        8.3732749345       14.4921376023
  H         3.6516878992        8.6523595686       29.0763644571
  H         2.7098829789        8.5112249558       30.4812180490
  C         4.2354736646        9.9275792786       30.6516153068
  H        -3.6619790154        8.4158411677       26.5431143137
  H        -3.9959256343        8.5382841631       28.2507153926
  C        -5.0556423961        9.9455678786       27.2128895856
  N        -1.0868181773       16.3078711078       30.8560037970
  C        -1.6013930648       15.7523314972       33.0489114348
  C        -1.6446198222       13.5733195028       34.0285225111
  H        -1.1409642816       12.0382173187       32.7702081001
  H         6.2330875951       13.4186810038       17.4428015015
  H         7.5265973133       14.5510161994       17.2425444234
  H         7.8444017171       12.9344759297       17.5492415067
  S         4.3351647532        9.9816857676       14.0822065884
  C         4.0935740778        7.3894058239       13.4224940158
  H         4.3740312589       10.9558584418       30.3960086339
  H         4.2387080462        9.9321751291       31.7398636961
  C         5.6118739048        9.3506948151       30.4358203662
  H        -5.1607589850       10.7118021966       27.9460519359
  H        -5.8148312278        9.2707524891       27.5455462252
  C        -5.4098624317       10.3990286771       25.8182140256
  S        -1.2669059022       17.6992176008       31.6293251051
  N        -1.6336163422       17.1474757097       33.1336384549
  C        -1.8243884566       14.9521094631       34.1910994526
  H        -1.7164950552       12.8520415801       34.8148355996
  C         4.5588548424        9.3958084241       12.4334981361
  N         4.5141970532        8.0331241536       12.2951426229
  O         3.9833194344        6.2283751725       13.5042963375
  H         6.2876065276       10.0993903387       30.8231641796
  H         5.8587076473        9.2217348254       29.3459004333
  C         5.7185837067        8.0095402645       31.1506152831
  H        -4.7340049747       11.2440413409       25.5623984669
  H        -5.1263277563        9.6393916351       25.1126786565
  C        -6.8365079561       10.8664033021       25.6615262247
  C        -2.1907661179       15.5777631831       35.4018378446
  S         5.0903986700       10.3193606203       11.0295933035
  C         4.5357362811        7.2764580430       11.0356706355
  H         5.9913586384        8.1145036920       32.1927679430
  H         4.7259456255        7.6443762831       31.0696997625
  C         6.6686103801        7.0225853593       30.3677950052
  H        -6.9122671600       11.4899096323       24.7734004385
  H        -7.1534476058       11.3897544469       26.5462355104
  C        -7.7586349373        9.6958917604       25.5066543425
  H        -1.9370944490       16.6133014716       35.5008180988
  C        -2.9158614109       15.1183633089       36.4937889486
  H         5.1048627255        7.8324134185       10.2404250421
  H         5.0550718251        6.3886489134       11.3056735198
  C         3.1171215028        7.0695491318       10.6174604547
  H         7.5688379504        7.6006790666       30.3020943832
  H         6.3914513515        6.8303662064       29.2994474135
  C         6.8586429682        5.6967347600       31.1057604428
  H        -7.6816100504        9.3130546994       24.5019527796
  H        -7.4635820476        8.9309936171       26.2301445002
  C        -9.2360577368       10.1701823191       25.7030742975
  S        -3.6268658672       13.5332852127       36.6601030320
  C        -3.2448353319       16.0843800180       37.5188386824
  H         2.8581570128        7.8976469942        9.9101556274
  H         2.9622991711        6.1343207037       10.0023814665
  H         2.3249596255        7.0404761926       11.3612419894
  H         7.7411493436        5.6374222986       31.7713365309
  H         6.8206383972        5.0014389749       30.3366447059
  H         5.9567169910        5.5468997741       31.7184423641
  H        -9.7634263004       10.4266963989       24.7386540016
  H        -9.2890018307       11.0361079882       26.3315950155
  H        -9.7809304997        9.4140248050       26.2281389327
  C        -4.2439443808       14.1662887406       38.1842388532
  N        -3.9417070316       15.4722516260       38.4383271177
  O        -2.8859586290       17.2538023804       37.6735973800
  S        -5.1876082424       13.2512921776       39.4109182750
  C        -4.3391185510       16.1553470818       39.6960489992
  H        -4.7081348324       17.1500549622       39.5192315938
  H        -5.1746316370       15.7564334572       40.2479166556
  C        -3.1501339044       16.2650092725       40.6578507531
  H        -2.4811626319       17.0487950086       40.3252916216
  H        -3.5911898118       16.6557617306       41.5564406584
  H        -2.6673969321       15.3133541042       40.9332178130
