352
i=
  H         4.5716505880        1.3747018405       12.4958404359
  C         3.9625918958        2.3087618326       12.5557662829
  H         4.5528735150        3.1009634560       12.8667632571
  C         3.3122253593        2.3066553464       11.1645346715
  C         2.9633911296        2.1903157012       13.7131165654
  C         4.2694381214        2.7943596719        9.9379517252
  H         2.4667100372        3.1157746986       11.1320765320
  H         2.7878470548        1.3472902539       10.8340026288
  H         2.1978903746        1.4534640768       13.5300265070
  H         2.3704641552        3.0933247419       13.8210465578
  H         3.5350475723        1.9480516244       14.6496625399
  C         4.7654422920        1.5878105269        9.1983865377
  H         3.8215784279        3.6685013201        9.3754989557
  H         5.0395558340        3.2460968863       10.5084263213
  C         5.4750115914        1.8980639039        7.9350392586
  H         3.8246708555        1.0107365219        8.9684004675
  H         5.3836090843        0.9224989828        9.8529243392
  C         6.6707226473        2.8829856898        8.1243097903
  H         4.9264106418        2.4206199302        7.2118513929
  H         5.5957317686        0.9887753753        7.3822012254
  C         7.8370193155        2.0252139317        8.6731554672
  H         7.1341939648        3.1537160860        7.2272572381
  H         6.3704300379        3.7494940476        8.7863339225
  C         9.0859004269        2.9451385299        8.8736892087
  H         8.0530215485        1.2821792782        7.8671014783
  H         7.5302207571        1.5448291722        9.6228628829
  C         8.6018139315        4.2552992533        9.5372564993
  C         9.5279483842        3.6638748451        7.5735970026
  C        10.3134821584        2.2911231932        9.4735710916
  C         8.7328483141        5.3792711714        8.7131485848
  C         7.9977477074        4.5498555000       10.8427233370
  C         9.3697366968        5.0138317377        7.4392237837
  C        10.0770131982        3.0426766458        6.4593068187
  H         9.9078088225        1.7465380754       10.2075200687
  H        10.6499369155        1.5165292781        8.7928383219
  C        11.4874308962        3.0722960267        9.9019868670
  S         8.3724499888        6.8240206109        9.5964569910
  C         7.8865743357        5.8815970029       11.0354688210
  H         7.8298255318        3.7443679072       11.4898436797
  C         9.7534937875        5.6155471144        6.2725344456
  H        10.2169446844        2.0509739293        6.5907275372
  C        10.4673142719        3.7020994393        5.2803982254
  H        11.1232848856        4.0702456869       10.2713637907
  H        11.9863404442        3.4217918690        9.0866192056
  C        12.3904097972        2.3572405016       10.8692682731
  C         7.5286147667        6.5162979175       12.2787071654
  C        10.3422635689        5.0488645639        5.1422467746
  H         9.5960313609        6.6939524529        6.3552711208
  C        10.8709330711        3.2439972856        4.0911583225
  H        13.3603470428        2.7199033825       10.6710998200
  H        12.6149628416        1.3564664474       10.6961646580
  C        12.0908111436        2.6484173469       12.3113841118
  C         7.5191451807        7.8867919078       12.5954797480
  C         7.1197371707        5.6836394953       13.3707196210
  C        10.7008694170        5.7224173957        3.9253625917
  C        11.0226434656        4.3679824848        3.2534590522
  S        11.1476586525        1.7948516553        3.2250298458
  H        11.9224035996        3.7310196456       12.6162032505
  H        11.1207681352        2.3513607003       12.5541312612
  C        13.1619556934        2.2263450522       13.3415299995
  N         7.7936640517        8.9238785485       11.7292409003
  C         7.1767549047        8.4557506630       13.8365124478
  C         6.7968181439        6.1706896009       14.6299182139
  H         6.7902903160        4.6809768798       13.3112796143
  C        12.0607261095        6.5611235692        4.0239687722
  C         9.5330001309        6.5083199858        3.2731671987
  C        11.4326561026        4.0032937249        1.9225829104
  C        11.4919878927        2.6230239761        1.7860505456
  H        13.9457949925        2.9599661307       13.4714792899
  H        13.7266138544        1.2815217369       13.0531646843
  C        12.4641604928        2.0170163793       14.6785725965
  S         7.8095235712       10.3826395718       12.4525025270
  N         7.3185230987        9.8523895906       13.9121697396
  C         6.7335159375        7.5996736344       14.9159091312
  H         6.5104775814        5.6184607884       15.4315222693
  H        11.7841744209        7.2948096725        4.6307052003
  H        12.2670781861        7.0892580138        3.1089868706
  C        13.3078498414        5.8395787135        4.4995736466
  H         9.0678029428        7.1464085131        4.0535027694
  H         9.9637943706        7.2545001825        2.6822619661
  C         8.5044450896        5.6356749933        2.6021202440
  H        11.5996329099        4.8342292823        1.1939810506
  C        11.7300672762        1.8458159982        0.6345848351
  H        12.0789208421        2.9560916914       14.9153081273
  H        11.7279214869        1.2556398981       14.7089373441
  C        13.4542757264        1.8003959243       15.9206050805
  C         6.5814444432        8.2236276601       16.2297907574
  H        13.2136836390        5.3388916720        5.5724692415
  H        13.6953037480        5.1954274980        3.7714587972
  C        14.4625739004        6.8726319584        4.7190249213
  H         7.9643544879        4.9726534425        3.2503075315
  H         9.0332998985        5.0079645554        1.8862988208
  C         7.5649153123        6.6871306283        1.9362149595
  C        11.8821013005        0.4645007655        0.4873332705
  C        11.8533312579        2.6420618114       -0.6162681360
  H        14.4089210245        2.2682090137       15.6970531992
  H        13.6469898340        0.6884479097       15.9540504005
  C        12.8376970584        2.2196859418       17.2761454264
  H         6.4042617345        9.2538066554       16.1093228007
  C         6.3280666285        7.7246077456       17.5014519656
  H        14.0883558734        7.5781611247        5.3457518796
  H        14.6038136949        7.3481543237        3.7872126588
  C        15.7327355036        6.1635881379        5.1421629208
  H         6.9862518705        7.2058986104        2.7602669016
  H         8.2043456175        7.4065840241        1.5036340621
  C         6.5095153686        6.0508386182        0.9390026780
  N        11.7087100660       -0.4647775700        1.4777711113
  C        12.1181034724       -0.1662288291       -0.7271143716
  C        12.2019738649        2.0337406698       -1.8093543492
  H        11.7868735690        3.7875392649       -0.5892453811
  H        11.8060442300        1.9060190299       17.1744788932
  H        12.8939397661        3.2406756308       17.5059336009
  H        13.4653275159        1.5848513337       17.9284982503
  S         6.0907291135        6.1052616871       17.9507331968
  C         6.1545148881        8.7619440536       18.6063714477
  H        16.0423122619        5.1798108453        4.6990755214
  H        16.5350463186        6.7910102730        4.9807795709
  C        15.9022664287        6.0987190253        6.5713941232
  H         6.4076608002        5.0564102814        1.3498968906
  H         7.0139482905        5.9029002613       -0.0090868219
  C         5.0924229379        6.6866736675        0.9968418588
  S        11.8315197468       -1.9509952526        0.9327187686
  N        12.2636916639       -1.5487363157       -0.5504615169
  C        12.3321012633        0.5784083947       -1.9219449532
  H        12.2542754306        2.7182512307       -2.7120525795
  C         5.9179619264        6.7700801138       19.5732911608
  N         5.9833206504        8.1716002204       19.7863252249
  O         6.3886830416        9.9254146848       18.4147306782
  H        16.0364909410        7.1300564017        6.9838891566
  H        15.0389546229        5.6187167035        7.0319518770
  C        17.1050673517        5.1580894972        6.9951469716
  H         4.5312808238        6.3224705661        0.2075150217
  H         4.5779992945        6.3085388177        1.8863722298
  C         5.0170601392        8.2620876024        1.0072500340
  C        12.6823866094       -0.3264600646       -3.0522010200
  S         5.5781373029        5.7921956564       20.9962180247
  C         5.8005925949        8.8116853238       21.0708086675
  H        16.8703290332        4.7751745080        7.9117899297
  H        17.2288966506        4.3231499107        6.3075749316
  C        18.3537631360        5.9188205891        7.3079645376
  H         5.7520176353        8.4780877004        0.2499977295
  H         5.4259254464        8.5037588082        1.8399155811
  C         3.5990583740        8.7912451225        0.8751936599
  H        12.6051746749       -1.3813468710       -3.0169933168
  C        13.2797044331        0.0063380149       -4.3395136817
  H         5.0123524125        8.5197986813       21.8442878062
  H         5.4565641725        9.8230019440       20.8355055074
  C         7.1682807852        8.8007769792       21.7709968661
  H        18.8723220969        5.4926990731        8.1887200213
  H        18.0642568709        6.9632495014        7.3364303405
  C        19.2662405709        6.1746780232        6.1039088697
  H         3.3345268461        8.6254463906       -0.0970325203
  H         2.9618101834        8.3040931633        1.6149896219
  C         3.5619182224       10.2699938825        1.1840432287
  S        14.0110082651        1.5678388097       -4.7152641249
  C        13.3881828197       -1.0240597361       -5.2958349191
  H         7.2259702771        8.8490641237       22.8697876165
  H         7.8294211277        9.4969035501       21.3580525030
  H         7.7000278788        7.7600824955       21.7793871532
  H        18.8634826229        6.9713130290        5.3285850679
  H        20.3130080717        6.4318853759        6.3202047357
  H        19.4483987169        5.2099460332        5.4988353994
  H         3.1100985716       10.4450106705        2.1752705375
  H         4.5102274955       10.7827838352        1.3116344397
  H         3.0047057226       10.8984465801        0.4751402126
  C        14.2951326506        0.7782534550       -6.3383066648
  N        13.8771112720       -0.4243088561       -6.4963322532
  O        13.1336011928       -2.2170348148       -5.1449429355
  S        14.9869676806        1.6840019646       -7.6660511895
  C        14.0890465097       -1.3385540006       -7.6338294309
  H        14.8083987746       -2.1658421052       -7.2390629248
  H        14.6674100004       -0.8763091740       -8.3901999608
  C        12.9068873549       -2.0956632254       -8.1961229276
  H        13.2625448583       -3.1341125607       -7.9402584048
  H        12.7619724293       -1.8623462761       -9.2337928801
  H        12.0180030821       -1.6324401587       -7.6492103668
  H        -3.9119925708       14.3839808167       16.5162700321
  C        -3.1514371215       13.5965199398       16.2486696614
  H        -3.6691097661       12.6174275448       16.2952275679
  C        -2.1008098527       13.8391323803       17.3022638105
  C        -2.7710027615       13.6901084232       14.7436892888
  C        -2.7801177025       13.7588534491       18.6740051378
  H        -1.3801181599       13.0025424401       17.1750437795
  H        -1.6222204765       14.8324103840       17.2563220119
  H        -2.1087973756       14.6185430011       14.6449396528
  H        -2.2570830458       12.7957795048       14.3737383063
  H        -3.7333816076       13.7657937021       14.1311791375
  C        -1.8147332502       13.7246975200       19.8291500707
  H        -3.3956942342       12.8077188347       18.6625437694
  H        -3.3236158195       14.6622457136       18.7866420903
  C        -2.4029298172       13.4796578466       21.1787590880
  H        -1.0914454579       12.9896996630       19.5212952140
  H        -1.2557154775       14.7077738699       19.7166646971
  C        -1.2771090034       12.7984070021       21.9905891762
  H        -3.2689324034       12.7759917755       21.1091983692
  H        -2.6991353783       14.3741670736       21.6941047808
  C        -0.0715808424       13.6866873129       22.4706200792
  H        -1.6600341310       12.3408000810       22.8878916563
  H        -1.0020898249       11.8390091276       21.6325366110
  C         1.0579739711       12.9164882852       23.2393956860
  H         0.4684712225       14.1098964080       21.6417663449
  H        -0.4105297378       14.5161599359       22.9591897657
  C         1.3219376052       11.6409685769       22.5964632462
  C         0.5249017168       12.2117759635       24.4247788136
  C         2.3727230817       13.7789386812       23.4310962386
  C         0.9954649875       10.5218670840       23.3529475300
  C         1.9691510124       11.2848548890       21.3057203824
  C         0.5111790188       10.8699501089       24.6275089875
  C         0.1678126805       12.8658133065       25.5865901480
  H         2.7963286600       14.2259298384       22.5643420366
  H         2.2184600536       14.4270352683       24.2518871753
  C         3.5174637647       12.9680641994       23.8176127913
  S         1.3496217366        9.0222175190       22.6540231362
  C         2.0478998609        9.8999658445       21.2662674273
  H         2.3083091340       12.0704750220       20.6420865036
  C         0.1045444904       10.2606672747       25.7767587273
  H         0.1554786290       14.0073280930       25.5394646936
  C        -0.3009947363       12.2247449532       26.7190861699
  H         3.9673998223       12.0846043198       23.2788834899
  H         3.3107985436       12.5661312931       24.8335944219
  C         4.8846628519       13.7477466624       23.9477583940
  C         2.5242379258        9.0837128424       20.1613902555
  C        -0.4218937169       10.8791661998       26.8618402604
  H         0.0695072879        9.2143957834       25.8704206287
  C        -0.7373625011       12.6122984284       28.0293391700
  H         5.4817912494       13.2759892379       24.6778659643
  H         4.7001151009       14.7249084013       24.2554319525
  C         5.7160830313       13.7866702055       22.6607130457
  C         2.4881116498        7.6758060503       19.9835497882
  C         2.8062172743        9.7657456083       18.9057611161
  C        -0.7136032857       10.1533471420       28.1576008226
  C        -0.9382456405       11.5252960488       28.8848665068
  S        -1.0293358022       14.0797512269       28.8229073429
  H         6.5082574797       14.4306110513       22.8304261382
  H         4.9875200953       14.0783908133       21.8668025396
  C         6.2088385883       12.3798398699       22.1759679313
  N         2.3657664860        6.6904112963       20.9247171855
  C         2.7499953308        7.0813626515       18.6891511330
  C         2.9600504104        9.2280822073       17.6922384507
  H         2.8581048521       10.9540369287       19.0283853401
  C         0.3940507944        9.3071647538       28.7646277165
  C        -2.0498507180        9.3210497101       28.0498163215
  C        -1.3390468641       11.9858770908       30.1925735023
  C        -1.4600776863       13.3330364652       30.2962366438
  H         6.8727568196       11.8612433780       22.8580409894
  H         5.3599620567       11.8397126601       21.7907465383
  C         7.1665659629       12.5726555695       21.0707819792
  S         2.3009943299        5.2228602778       20.2610583701
  N         2.6834814153        5.7052214180       18.7261188101
  C         2.8630240008        7.7861771797       17.4870157239
  H         3.3899816937        9.8814064715       16.8793475701
  H         0.6762538414        8.5019924681       27.9981952303
  H        -0.0011632548        8.7830507091       29.5964042438
  C         1.7217799679       10.1755746995       29.1203538150
  H        -1.7855629546        8.6262310305       27.2455180666
  H        -2.1135074499        8.6916996843       28.9119494544
  C        -3.1997469484       10.3192014408       27.7183749132
  H        -1.3651490626       11.2664374516       31.0722251220
  C        -1.5887979974       14.0581118972       31.5364336478
  H         7.7166358870       11.6868766715       21.0718645829
  H         7.9943370221       13.3421059586       21.4127222894
  C         6.6712408604       12.9105084172       19.6350915931
  C         3.1853546216        7.1339095434       16.3008057479
  H         1.9199746470       10.8506768603       28.2596268715
  H         1.1406978544       10.8479374252       29.8598088435
  C         2.7255142495        9.4192785028       29.9511769911
  H        -2.8799196156       10.9959075429       26.8662064613
  H        -3.4305626524       10.8599644261       28.7208179462
  C        -4.3822584955        9.5042733352       27.2166940528
  C        -1.6712105081       15.4562630187       31.6299981793
  C        -1.8668449487       13.3979488433       32.8676071048
  H         5.7167607550       12.5411359807       19.3212349236
  H         6.4483412142       14.0316370153       19.7315269849
  C         7.7638929646       12.8837671904       18.5088362105
  H         3.0175144033        6.1159583273       16.2333937473
  C         3.4748881812        7.6753260287       15.0097921711
  H         3.4930067437        8.9494696962       29.3296114928
  H         2.3897292579        8.6217601113       30.4349930106
  C         3.6063679222       10.3289274870       30.7544074864
  H        -4.0531968584        8.8143097902       26.4726159631
  H        -4.8335907560        9.0527274192       28.0143879044
  C        -5.4388980886       10.3863639318       26.4252548072
  N        -1.5831357035       16.3654015589       30.5876827657
  C        -1.9320295224       16.1408347358       32.8242226001
  C        -2.0232715254       14.0487044679       34.0396635727
  H        -1.8655954580       12.3534411458       32.8135930322
  H         7.6270152999       13.6641826363       17.8083866896
  H         8.7142371656       13.0391652239       18.8470053523
  H         7.8056896669       11.8745289760       18.1511127008
  S         3.5612967225        9.2758846904       14.4702401365
  C         3.6149061529        6.6999236254       13.9618790409
  H         3.7168689434       11.3104604065       30.2480363287
  H         3.3344109095       10.3805393654       31.7804236050
  C         5.0550506709        9.6482194207       30.8390907321
  H        -4.9187887710       10.8381493740       25.5316111915
  H        -5.8523842810       11.2088059663       27.1494320888
  C        -6.4337336999        9.3761871829       25.8907249385
  S        -1.5943958416       17.8471000505       31.1282541355
  N        -1.9372282269       17.4724886209       32.6602548983
  C        -2.2287917953       15.4916728667       34.0786393907
  H        -2.0147319763       13.3417990439       34.9554069491
  C         3.9315652208        8.6665733380       12.8634512334
  N         3.8354894818        7.2928310101       12.8172650557
  O         3.6145032523        5.4242299217       14.0048496720
  H         5.6489392811       10.4924323002       31.3233942004
  H         5.4149446028        9.4768414514       29.8454671777
  C         5.2879933552        8.4100795148       31.7036871045
  H        -5.9094332034        8.4050271724       25.4897385775
  H        -6.7136424355        8.7407420152       26.8029636263
  C        -7.5293217858        9.9542871897       24.9755679884
  C        -2.4753687283       16.3825144327       35.2245697798
  S         4.2303850279        9.3737334357       11.3323706359
  C         3.9490862482        6.4240156663       11.5464568054
  H         5.8337027751        8.4841936470       32.6246084127
  H         4.3787896215        8.0164502958       32.0691483028
  C         6.1712865317        7.4119397346       30.9130798013
  H        -7.3661308553        9.3085215390       24.0451555241
  H        -7.2475502906       10.9801704420       24.7089016663
  C        -8.8426318287        9.9808787290       25.7280892750
  H        -2.3658489705       17.4189040148       35.1594276993
  C        -2.9056726266       16.0032813177       36.5295642294
  H         4.5018025070        6.8901676153       10.7595287321
  H         4.5234987858        5.6056410027       11.7065995771
  C         2.5413596472        6.3145889025       10.8719144872
  H         7.0785105847        7.8645235810       30.9144667684
  H         5.9505384974        7.2946845042       29.8807208788
  C         6.2454004025        6.0862463854       31.6255003299
  H        -9.6871452470       10.0798449689       24.9629923513
  H        -8.9450221354        9.0282229513       26.2043981940
  C        -8.7864668614       10.8887746420       26.9131088645
  S        -3.3096349406       14.4167757621       37.1150387114
  C        -3.1143476862       17.1309931769       37.4601080794
  H         2.5201659267        6.8575684259        9.8933197829
  H         2.3347346526        5.3495882687       10.6080437417
  H         1.8118729704        6.5769223412       11.5937413669
  H         5.3670236453        5.4988690687       31.5170191163
  H         6.3407961608        6.3738300042       32.6283148465
  H         7.1903486918        5.6617949069       31.4240559899
  H        -8.1061274873       10.5534387293       27.5989174863
  H        -9.7463129871       10.9607591525       27.4635270022
  H        -8.3889035210       11.8683481825       26.5649360146
  C        -3.8969005607       15.3008712547       38.5479651358
  N        -3.6268698566       16.6557503680       38.5267179708
  O        -2.9090443476       18.3015376042       37.1321242594
  S        -4.8350393196       14.7396327076       39.9245228104
  C        -3.8463188348       17.5163713722       39.6876281661
  H        -3.8366627460       18.5501338926       39.3407931757
  H        -4.8383379636       17.3703576238       40.1506359767
  C        -2.8293142908       17.2107297681       40.8013899902
  H        -1.7968613488       17.1412478037       40.4221983940
  H        -2.9936708089       18.0858945431       41.5070347702
  H        -2.7793701119       16.2888318350       41.2748141959
