352
i=
  H         2.4457717366        3.3738874052       12.6991623740
  C         2.8101294720        2.3720421308       12.7511728991
  H         2.3125920553        1.7589986638       12.0239563695
  C         4.2520482366        2.5856356225       12.4250764698
  C         2.5860954102        2.1299990103       14.2458715285
  C         4.4979815671        2.9813914218       10.9949128574
  H         4.7473201712        1.6384724184       12.6358248691
  H         4.7359831788        3.3118341520       13.0738841325
  H         2.7430581180        1.1086672164       14.6738379546
  H         1.5530687753        2.4043909287       14.5046455694
  H         3.1731045072        2.7748384936       14.8793424719
  C         4.6890771164        1.6821513085       10.2100637690
  H         3.6406884552        3.5306983181       10.6418912132
  H         5.4268152939        3.5591587412       10.8947636818
  C         5.1650344141        1.8538761573        8.7724664583
  H         3.7646845413        1.0306204811       10.2163622338
  H         5.4411415488        1.1131855944       10.6815839427
  C         6.5855218773        2.4787758223        8.5434106773
  H         4.3697985026        2.3855872759        8.2102112157
  H         5.2460978738        0.7983306263        8.4025117419
  C         7.8074136142        1.6907834399        9.1825278259
  H         6.8395821190        2.6215668034        7.4269537419
  H         6.4106135495        3.4518140646        8.8767613595
  C         9.1288501220        2.4585848246        9.2925662994
  H         8.0102667817        0.8041392687        8.5850759296
  H         7.6179877864        1.3063521389       10.1799136232
  C         8.7941700713        3.7810671984        9.9349080369
  C         9.6204483869        3.1983335697        8.0231336559
  C        10.2679838215        1.6912760714       10.0753478603
  C         9.0373431201        4.8919533767        9.0722787726
  C         8.3914442781        4.2676139773       11.1699565870
  C         9.5638443603        4.5548276879        7.8710840006
  C        10.0769997149        2.6425115773        6.8094525847
  H         9.8870608808        1.2128022953       11.0045260356
  H        10.6915817633        0.9605750949        9.3657504496
  C        11.4066680536        2.6266647493       10.3041562184
  S         8.6143362277        6.3800445918        9.7870733590
  C         8.1867667935        5.5903700163       11.2219081776
  H         8.2363490220        3.5453580825       12.0259338079
  C         9.9755280945        5.2249587241        6.7654737299
  H        10.2243787015        1.5769412675        6.8091951518
  C        10.4731751657        3.2934128431        5.6977525424
  H        11.1955443435        3.6618698060       10.3903177708
  H        11.9789847945        2.6954166124        9.3087177031
  C        12.3687566520        1.9820569093       11.2418451878
  C         7.7660191179        6.2893363043       12.4792836582
  C        10.5095044332        4.6510260073        5.6286920166
  H         9.7978574808        6.2781131962        6.8916616057
  C        10.9352040350        2.9597617760        4.3816792901
  H        13.2141409185        2.6641657813       11.1727429452
  H        12.9282064522        1.1058772619       10.8909927781
  C        11.8934990203        1.9770944893       12.7410409822
  C         7.7945183633        7.6872975054       12.6947743688
  C         7.2847049065        5.4255000345       13.5748398340
  C        10.8623445574        5.3784629269        4.4153666767
  C        11.1172874012        4.0491519466        3.5825989009
  S        11.1996012907        1.5291962117        3.5228325670
  H        11.0516118317        2.6762111712       12.8454969789
  H        11.4947957055        0.9616011391       12.9244037833
  C        12.9007191631        2.3363697609       13.8157654466
  N         8.2251117570        8.6065202388       11.7701698659
  C         7.6141725765        8.2583182545       13.9154586025
  C         7.0467132845        5.9913228856       14.8434042859
  H         7.0206670140        4.3735741233       13.4048835666
  C        12.1863910628        6.2352548152        4.5191702968
  C         9.7266598280        6.2311298499        3.8123464690
  C        11.5226988296        3.6620921015        2.2704589921
  C        11.4383467133        2.3023818276        2.0564745368
  H        12.8362593270        3.4291397172       14.1088803242
  H        13.9187470412        2.2733183758       13.4666592444
  C        12.8775460907        1.5678708914       15.1557445585
  S         8.2913003355       10.0701008380       12.4587800206
  N         7.9162623874        9.6423262051       13.9710038129
  C         7.2060093154        7.4690223670       15.0750753178
  H         6.5932744693        5.3892640218       15.6073920096
  H        12.0274568732        6.9632165244        5.3094937316
  H        12.3024152848        6.8678691273        3.6097998633
  C        13.3068206038        5.3124757597        4.8689331043
  H         9.4043350240        7.0018581503        4.5815915273
  H        10.1060980703        6.8165556907        3.0189987642
  C         8.5050680803        5.5032838562        3.3039389005
  H        11.7925439796        4.3871465489        1.5118279412
  C        11.6686534093        1.5702683115        0.8359445341
  H        11.9009217515        1.0967688108       15.4179182117
  H        13.3904982137        0.6195447177       15.0466907855
  C        13.4008845497        2.4093872494       16.3007807518
  C         7.0285958653        8.2101621845       16.3082471675
  H        13.0760809371        4.7403277613        5.8179691965
  H        13.3902896903        4.4826713342        4.0660943044
  C        14.7444597065        5.9934788592        4.9038151474
  H         8.2598177615        4.7952672190        4.1199177756
  H         8.8821229734        5.0140971100        2.4095746855
  C         7.3166082109        6.4469653745        3.1722240527
  C        11.9445469491        0.1764477776        0.7184838039
  C        11.9460975479        2.3173109810       -0.4364374649
  H        12.8805394157        3.3880740843       16.3557275323
  H        14.4367931561        2.6178683787       16.2620091020
  C        13.1621411421        1.6433705630       17.6096230587
  H         7.3297271196        9.2345572391       16.2233279566
  C         6.7336735016        7.8050714459       17.5599675725
  H        14.6964182524        7.1096390313        5.0810429575
  H        15.1939246651        5.8337200055        3.8805221868
  C        15.6127157318        5.2866608371        5.9447906782
  H         6.7884971042        6.4809202104        4.1025884979
  H         7.6520259839        7.4586109050        3.0933843095
  C         6.4670604716        5.9779226169        1.9564858088
  N        11.6377114907       -0.7505914659        1.7165950376
  C        12.3135455214       -0.4415784291       -0.4625330441
  C        12.4234862707        1.6996861350       -1.5654348787
  H        11.7678225682        3.4099261877       -0.5189421621
  H        13.8412213730        2.0172804793       18.3567893134
  H        13.3298070634        0.5940528130       17.5050740824
  H        12.2056197556        1.7711906367       18.0646221364
  S         6.3055051886        6.2428323235       18.0928456257
  C         6.8601791268        8.8217294642       18.6204131352
  H        15.0915580598        5.0687678393        6.8613102658
  H        15.9734774870        4.3560751746        5.4980219142
  C        16.8487114871        6.0317506619        6.3453615434
  H         6.1998006860        4.9770931574        2.2024415578
  H         7.0364445218        6.0248740921        0.9622075204
  C         5.2801407590        6.8606255284        1.6730867878
  S        11.7542996372       -2.2682691661        1.1646761670
  N        12.2963072565       -1.8166453506       -0.3569347454
  C        12.6092796598        0.2248101706       -1.6663484111
  H        12.5142221314        2.3438709777       -2.4096343634
  C         6.3389228612        6.8286924232       19.7246845159
  N         6.4099176697        8.1962472889       19.7659514002
  O         7.3512843931        9.9301330302       18.5681007252
  H        17.4700027146        6.2930179399        5.5019154592
  H        16.5838185191        6.9981806723        6.7410080498
  C        17.6506945971        5.1859414963        7.4429717622
  H         4.6966975194        6.4084322169        0.9084566179
  H         4.6935294637        7.0046167376        2.6189938529
  C         5.7151470046        8.1679903475        1.0188754955
  C        12.8963009718       -0.5190888128       -2.8700675344
  S         5.7481703054        5.9145568456       21.0765519736
  C         6.5319669405        8.9748412009       20.9626009393
  H        17.1131745208        5.2711381892        8.3857595594
  H        17.7636809182        4.1719925515        7.1409095620
  C        19.0447841926        5.8015859503        7.6957021800
  H         6.1314004000        8.1238343233       -0.0376097766
  H         6.5814975536        8.6069103840        1.5159253400
  C         4.5545712208        9.2243713889        0.9206466636
  H        12.7394620579       -1.5760183868       -2.7709157619
  C        13.3831192031       -0.1383017220       -4.0846172376
  H         5.7753912295        8.6041681964       21.7325923446
  H         6.2679947911       10.0217242943       20.8737080773
  C         7.9830351678        8.8313720985       21.4361468215
  H        19.4985587653        5.2323355966        8.5700725755
  H        18.8839687864        6.8092983488        7.9406201023
  C        19.9635741902        5.6971728609        6.4359889355
  H         4.8781581910       10.0360530736        0.2567457793
  H         3.6379720007        8.9048125313        0.4015434380
  C         4.1880925048        9.7460394677        2.2892769599
  S        13.8197176962        1.3763614009       -4.5796340973
  C        13.6687677760       -1.1408384707       -5.1164932942
  H         8.3007675015        7.8181233518       21.3505965227
  H         8.0423397958        9.0914326857       22.5170882816
  H         8.6745287656        9.4761982649       20.8969243859
  H        19.9273053870        6.6362761242        5.8107001946
  H        20.9687197286        5.7686755321        6.8523596002
  H        19.8714563798        4.8484401327        5.8416430886
  H         3.8168252067       10.7850330607        2.2806009972
  H         3.4654072875        9.1121506664        2.6796605047
  H         5.0243966099        9.9494437194        2.9456029155
  C        14.2992011393        0.7046103774       -6.1118890722
  N        14.3458155325       -0.6554522253       -6.1496408321
  O        13.4521284955       -2.3096210078       -4.9281986732
  S        14.8123135892        1.6484133515       -7.5021585422
  C        14.6877852310       -1.3764713585       -7.3452355591
  H        14.8526152916       -2.4058416034       -7.1822734782
  H        15.5810598428       -0.9541459619       -7.8777865138
  C        13.5512331631       -1.3234370056       -8.3652805936
  H        12.6378700743       -1.4893427557       -7.7632005276
  H        13.6352160270       -2.3178787489       -8.8474045049
  H        13.4943883763       -0.5762791632       -9.0959570640
  H        -3.1791667515       14.7831064402       16.6988486996
  C        -2.9416956613       13.7312849072       16.5645102709
  H        -3.9217203641       13.2078360357       16.6221628088
  C        -1.9172675472       13.4384372342       17.6549440052
  C        -2.3548604249       13.4555668061       15.1506640237
  C        -2.3310955609       13.9651360367       19.0090814204
  H        -1.7265952255       12.3665676505       17.7918264612
  H        -0.9171646000       13.7760694499       17.5190026287
  H        -1.6446696136       12.7003187513       15.1009399683
  H        -3.0638823047       13.2428417839       14.4314990236
  H        -1.8840907528       14.3014698315       14.6851393642
  C        -1.4484459655       13.2833750959       20.0474452697
  H        -3.4423995148       13.7362712003       19.1816598971
  H        -2.0424311548       15.0141152113       18.9911461727
  C        -2.0342888589       13.4034661720       21.4471833826
  H        -1.3973729981       12.2176433332       19.7556873943
  H        -0.3694160306       13.7196205318       19.9546366232
  C        -0.9565290449       12.9017593328       22.4581105972
  H        -2.9547780573       12.9249422807       21.6188779886
  H        -2.2485175287       14.4136685651       21.6440474772
  C         0.2784796129       13.8321798341       22.7393595528
  H        -1.3285661090       12.6634679002       23.4958911659
  H        -0.6270575499       11.9759876864       21.9512780310
  C         1.3569759003       13.0400067750       23.4797505379
  H         0.6988118644       14.3484309574       21.8500914082
  H        -0.0849847935       14.6991282373       23.2833015071
  C         1.7014141333       11.7608044928       22.7344390799
  C         0.9307883881       12.2429465889       24.7054874973
  C         2.6136094623       13.9258299723       23.5984437226
  C         1.4321964211       10.6402007894       23.5136476115
  C         2.3913191854       11.3750631341       21.5729073479
  C         0.8752274222       10.9458307427       24.7178456164
  C         0.4868785729       12.8936043537       25.8918808687
  H         2.8051649142       14.1915542187       22.5769625484
  H         2.2199889016       14.8878436448       24.0289577739
  C         3.8550067315       13.2271289285       24.1313227301
  S         1.7486643412        9.1120843136       22.6832705119
  C         2.4331494833       10.0129278749       21.4335589399
  H         2.7583115914       12.0982729929       20.9008320687
  C         0.4102747962       10.2845618844       25.8086679660
  H         0.3222452801       13.9792397651       25.8651487041
  C         0.0935689182       12.2105543612       26.9944581605
  H         4.2122897033       12.2850778746       23.5923953527
  H         3.6617817220       12.9225866900       25.1350213954
  C         5.1194166353       14.1570762804       24.1455859145
  C         2.7560372297        9.3225611917       20.1229380335
  C        -0.0326506209       10.8554154917       27.0106895390
  H         0.3839923768        9.2173273764       25.7804268242
  C        -0.3378003490       12.6247892260       28.1838803971
  H         5.9169464318       13.6219471131       24.6686492187
  H         4.9154796487       15.0646422574       24.8023705791
  C         5.6944244316       14.5788145194       22.8449520668
  C         2.8046478174        7.9325426848       19.8469341145
  C         3.3265564146       10.1716385573       19.0296221303
  C        -0.4186900024       10.2487273340       28.3420715385
  C        -0.5486670983       11.6154694387       29.0829078221
  S        -0.5737410243       14.1739944541       28.9523221095
  H         6.4138322415       15.3619179976       23.0606346453
  H         4.9087941586       15.0777334203       22.2484543578
  C         6.5137735912       13.4588032438       22.0861180287
  N         2.6284537099        6.9018019013       20.8016387442
  C         3.1318440451        7.4581528389       18.6004688917
  C         3.6155962137        9.7466836546       17.7473670449
  H         3.3643706490       11.2145504699       19.2003141449
  C         0.7565706965        9.3511586786       28.8238998271
  C        -1.6923902228        9.4380603412       28.1419386122
  C        -1.0040572055       12.0476842296       30.3608657805
  C        -1.0517904745       13.4156407710       30.4195746652
  H         7.5544063397       13.8092458245       21.9958578362
  H         6.7333259679       12.4993615925       22.6913608868
  C         5.9850126175       13.1318305457       20.6492917865
  S         2.5232339350        5.5003821105       19.9326371752
  N         2.8518649767        6.0830516417       18.4716272767
  C         3.4964134486        8.2904678688       17.4994607040
  H         3.8700163588       10.4010695823       16.9505538636
  H         0.9191578263        8.6214825983       28.0124178726
  H         0.5254140321        8.8977512887       29.7472721395
  C         2.0753311111       10.0751862689       28.9094474762
  H        -1.5206031573        8.6917617022       27.4117174430
  H        -1.8521446446        8.9446721158       29.1332655822
  C        -2.9081566266       10.2497405481       27.8230169214
  H        -1.2275367900       11.3827958796       31.2139162771
  C        -1.4015525163       14.1633664213       31.6183939432
  H         5.2494890568       13.8730780083       20.3107638728
  H         5.5388425171       12.1050745642       20.6030036193
  C         7.1159058689       13.0188383130       19.5954328235
  C         3.6770237928        7.6402100972       16.2097429634
  H         2.3786199591       10.4584710344       27.9686432933
  H         1.9654815634       10.8591810467       29.6540813435
  C         3.2274002172        9.2389877747       29.4471281711
  H        -2.7284147791       10.8962907366       26.9525722360
  H        -3.1110148278       10.9499355689       28.6146404999
  C        -4.1489661740        9.5956561998       27.6498873054
  C        -1.3893478953       15.5922486980       31.6500550917
  C        -1.6660390475       13.4490646101       32.9245303229
  H         7.8438995447       13.7514991343       19.7692233281
  H         7.6034631971       12.1280205202       19.6591722260
  C         6.6048334495       13.3362128443       18.1702088992
  H         3.7397824118        6.5816777624       16.2198919590
  C         3.8850137172        8.0717981883       14.9280452779
  H         3.4606425671        8.5484912822       28.6453923362
  H         2.8191413261        8.5121440530       30.1819501848
  C         4.4618849424        9.8689103638       30.0170050893
  H        -4.0925509717        9.0063560790       26.7788252715
  H        -4.4509595515        8.9721939212       28.4507166187
  C        -5.2874918777       10.5878389734       27.4938296014
  N        -1.1695867995       16.4562348475       30.6431472095
  C        -1.7295838980       16.2258125371       32.8423964766
  C        -2.0256867915       14.1303621250       34.0342630529
  H        -1.5674076229       12.3747029193       32.9709220297
  H         7.4083547948       13.1322577641       17.4071733154
  H         5.8275534142       12.5794601739       17.9868585185
  H         6.2726623118       14.3563114419       18.1662964879
  S         4.1046113360        9.6914003056       14.4977990255
  C         3.8614427313        7.0576255126       13.8340658511
  H         4.7860324532       10.7847202765       29.4201238636
  H         4.3416388060       10.1243880493       31.0988092425
  C         5.8129620643        9.0441745370       30.1087730303
  H        -5.2648430798       11.4073263856       28.1822649983
  H        -6.2056273565       10.1495799100       27.8515773717
  C        -5.4734643122       11.0019753021       26.0406765133
  S        -1.3075569234       17.9896055968       31.2206473214
  N        -1.7031183940       17.6125566750       32.7312405771
  C        -2.1185879713       15.5971064936       34.0603381009
  H        -2.2916604104       13.6083138588       34.9201636990
  C         4.4216961667        9.0167999152       12.8574540161
  N         4.1869885459        7.6480945509       12.6387805502
  O         3.7192583414        5.8766865987       13.9748198491
  H         6.5313480829        9.7785832347       30.1617116692
  H         6.0245151216        8.5027257768       29.1958315165
  C         5.8147548819        8.2098253226       31.3759383458
  H        -5.1506351884       12.0957111409       26.0200528245
  H        -4.8994291998       10.3981515414       25.3330044821
  C        -6.8716377430       11.1256792980       25.6297304885
  C        -2.4796629287       16.4171220347       35.1549790395
  S         4.8134102716        9.9339578372       11.4103292802
  C         4.3098229073        6.8775005152       11.3982773905
  H         6.8268892273        8.1881803362       31.7976513534
  H         5.1511272671        8.6283176002       32.1352307027
  C         5.5116981554        6.7250433559       31.1282371700
  H        -6.8915336597       11.6853730193       24.6971675266
  H        -7.4083649905       11.7421965739       26.4168331393
  C        -7.7606762331        9.9201237026       25.5068182193
  H        -2.5881362140       17.5184725636       35.0540982609
  C        -2.6937254918       16.1680659366       36.5003898218
  H         4.9446350603        7.5279232139       10.7484235692
  H         4.7691507112        5.8766167327       11.6374368547
  C         2.9258285623        6.7978646769       10.7335615297
  H         6.3340238273        6.1202011616       30.7527672717
  H         4.7636842592        6.6936877049       30.3847776689
  C         5.0101804477        6.0299954056       32.4403508958
  H        -7.7795784941        9.5231078663       24.5257956518
  H        -7.5253339379        9.0936627536       26.2363922070
  C        -9.2007745218       10.3999706926       25.7006525847
  S        -2.6387129440       14.6889007074       37.3098227769
  C        -2.8870270963       17.2947887728       37.4719892438
  H         2.4386985397        7.7586685303       10.9606026036
  H         3.0825662893        6.7697813495        9.6806676573
  H         2.4047898726        5.8917412737       11.1582007060
  H         4.2414864669        5.2066926668       32.3509028028
  H         4.7839436869        6.7891056741       33.1251936669
  H         5.8538227423        5.4509239437       32.9263666467
  H        -9.2640019586       11.3050635232       25.1303125521
  H        -9.4686990103       10.6981370939       26.6571814670
  H        -9.9576030859        9.6699331389       25.4636816085
  C        -2.9971469130       15.4847130810       38.8323792602
  N        -3.1831207040       16.7684864011       38.6764611115
  O        -2.9333026680       18.4849324147       37.1321737236
  S        -3.3662401746       14.7227048634       40.4025144945
  C        -3.4358068907       17.6342768606       39.8130273113
  H        -3.8285623084       18.5638791996       39.3585246620
  H        -4.2724019072       17.2943033755       40.4502528306
  C        -2.1278463060       17.9518231524       40.6029505676
  H        -1.7531948073       17.1178943682       40.9997488678
  H        -1.4338415660       18.3551223898       39.9310523722
  H        -2.2703911288       18.6496957250       41.3286705298
