352
i=
  H         2.7159348271        1.4822865398       12.9469088928
  C         3.4653299563        1.7356823520       12.2919277040
  H         4.0604254830        0.8602464219       12.0719707300
  C         2.9531127300        2.3868885203       10.9965684622
  C         4.1938902001        2.6783996516       13.2643277632
  C         4.0383860030        2.6524017142        9.9711694461
  H         2.2569205696        3.2744376608       11.1778995447
  H         2.2968829642        1.6412748203       10.4644067486
  H         5.0147423832        2.2095925034       13.8420195402
  H         3.4219858870        3.0338745069       13.9459434553
  H         4.6265317160        3.5371855583       12.7456221077
  C         4.8761040909        1.5367284846        9.4435589972
  H         3.5661275853        3.1620631722        9.1426624032
  H         4.6923639431        3.4170578771       10.4015703338
  C         5.7433386004        1.9409059641        8.3486616881
  H         4.2253065711        0.7385242149        9.0519162380
  H         5.5127599061        1.1335078442       10.2036198022
  C         6.9569800035        2.7524937114        8.8095367835
  H         5.2360193170        2.5416926788        7.6120556765
  H         6.1168548331        1.1035855134        7.7379734697
  C         8.1447950468        2.0061148825        9.3336224183
  H         7.2684069847        3.4891732036        8.0454101717
  H         6.6335298851        3.3836629100        9.6368034293
  C         9.3901382301        2.8983859455        9.4265129009
  H         8.3466843816        1.0493488466        8.8124657437
  H         7.8554178358        1.6453785399       10.3407740320
  C         9.0876908596        4.2390890887       10.1178037859
  C         9.7308971903        3.5755050981        8.1315013148
  C        10.6298510305        2.1530382224       10.0119507334
  C         9.2467453158        5.3327665554        9.2974416548
  C         8.6056944348        4.6000740542       11.3572952502
  C         9.7511009733        4.9034259286        8.0656997820
  C        10.0210153728        2.9622811358        6.9370361481
  H        10.1907382879        1.3443482111       10.7305659306
  H        11.0518245258        1.5280012847        9.1955078722
  C        11.6561255562        3.1747115039       10.5208676380
  S         8.8522316575        6.8491678762       10.0535453847
  C         8.4629189204        5.9574645930       11.4684878826
  H         8.3443769736        3.8012431072       12.0462997710
  C        10.0453465016        5.5716247297        6.8813964673
  H         9.9414403564        1.8856415378        6.9789462831
  C        10.3831125312        3.5697980901        5.7949392127
  H        11.2720712887        3.8791373700       11.2136305366
  H        12.0779059646        3.7243088407        9.6787442285
  C        12.8114664390        2.5234490854       11.1572303490
  C         7.8834044171        6.5646421659       12.6790482045
  C        10.3528884385        4.9191756830        5.6838283749
  H        10.0345957482        6.6289977507        6.9522160160
  C        10.8372297563        3.1185366512        4.5898722579
  H        13.5903553014        3.3016732328       11.4280093004
  H        13.3467721850        1.8075945267       10.5227741274
  C        12.5789698797        1.7950447109       12.5273961868
  C         7.8831429554        7.9321983490       12.9658391068
  C         7.2863336140        5.6819540886       13.7523415699
  C        10.6873884266        5.5220029058        4.3463548679
  C        10.9597703906        4.1177689718        3.6677968139
  S        11.1000478621        1.5659877542        3.8557584214
  H        11.7612740894        1.0801104835       12.5266440715
  H        13.4398344242        1.1940889843       12.8183204423
  C        12.3474065045        2.7762516865       13.6740306767
  N         8.3726906945        8.9461734465       12.1166435245
  C         7.3999502961        8.4013091801       14.1188203410
  C         6.8826357222        6.2248696047       15.0160218142
  H         7.1855793598        4.6025995437       13.6510528435
  C        11.9689945984        6.3478994853        4.5501005361
  C         9.4501081195        6.2508987579        3.8886929288
  C        11.2224185789        3.7236281254        2.3326908104
  C        11.4228089148        2.3854515639        2.2987776870
  H        11.4891896709        3.3840000940       13.5157075246
  H        13.2019633088        3.4013375193       13.7177825289
  C        12.1459368502        2.0516156898       15.0511719713
  S         8.4134489798       10.2854040731       12.9336445524
  N         7.5917022580        9.6994973061       14.2553058711
  C         7.0223499717        7.6972370668       15.2644383079
  H         6.4532419022        5.5545693152       15.7963976270
  H        11.7212759116        7.2467956671        5.1187883978
  H        12.2707491999        6.5802939649        3.5529006439
  C        13.2120568673        5.5097049523        4.9442962869
  H         9.1496177314        6.9992124678        4.6237524348
  H         9.7894314449        6.9019444409        3.0343724151
  C         8.1760107091        5.4235505873        3.3892831252
  H        11.3039822709        4.5351809771        1.6434112451
  C        11.8925981286        1.7171702698        1.0468320629
  H        11.2344103959        2.4433138532       15.4837502916
  H        11.8542923908        1.0157297837       14.9276465541
  C        13.3649252644        2.1700047687       16.0213078689
  C         6.7320554090        8.4459059926       16.4474595891
  H        12.9447690318        5.0065960252        5.8971643200
  H        13.5391749304        4.7281716242        4.2433595601
  C        14.4749645499        6.3884172327        5.2648690385
  H         7.2642122797        5.7431442059        3.8563114382
  H         8.2253290267        4.3676383014        3.6839990520
  C         7.9750475371        5.5589545490        1.8236433180
  C        12.1408352675        0.3635767598        0.7890491693
  C        12.0682894760        2.5357401297       -0.1727962868
  H        13.6162230030        3.1438118735       16.2272469169
  H        14.2942765149        1.7408567832       15.6017702982
  C        13.0022884137        1.6007152386       17.3826544759
  H         6.5413019927        9.5548639515       16.3459588785
  C         6.5562814208        8.0574370930       17.7686527113
  H        14.1814876962        7.0934434798        6.0289171965
  H        14.7012557873        7.0254541635        4.4359775845
  C        15.6799104618        5.5713982755        5.7429174191
  H         8.2708710691        6.5267478307        1.3660538469
  H         8.6160225933        4.7854551101        1.4286723964
  C         6.5511288754        5.2395171946        1.3508430641
  N        11.6426737347       -0.5730343923        1.7013280218
  C        12.3307508886       -0.2270612620       -0.4455255805
  C        12.2332869268        1.9758570535       -1.4554600284
  H        12.0435095610        3.5570479361       -0.0794124813
  H        13.6863131625        1.9441285997       18.1892826665
  H        13.1158802628        0.5334588828       17.1993552000
  H        12.0319076748        1.8601093197       17.7353275344
  S         6.4941208465        6.3928121918       18.3241536039
  C         6.3267605412        9.1332179942       18.7066954243
  H        15.3351020009        4.6783998892        6.3842437056
  H        16.2362126694        5.2187273691        4.9534703848
  C        16.6414476360        6.4963112962        6.6070663605
  H         6.2418380873        4.2840859854        1.7960136375
  H         6.4817565332        5.1452339971        0.3105485741
  C         5.5402901548        6.2808423094        1.8977768648
  S        11.6937928122       -2.0703098821        1.0790074384
  N        12.3608716538       -1.6075351096       -0.3946597734
  C        12.5726813543        0.5425608623       -1.6309981950
  H        12.3694946361        2.6932985928       -2.3023125715
  C         6.2846044579        7.1916111058       19.9077227794
  N         6.1391161356        8.5578868911       19.8940713689
  O         6.2908261800       10.3155954790       18.4214244473
  H        16.9117395825        7.3468042724        5.9365078080
  H        15.9352489974        7.0042754943        7.3654509449
  C        17.9746282490        5.8712322038        7.2133907704
  H         4.5421356382        5.8811059233        1.6270421361
  H         5.5533407738        6.4100054901        2.9673249917
  C         5.5926946342        7.7193383853        1.3587310419
  C        12.9307264458       -0.1639209335       -2.8423443410
  S         5.9630611153        6.3343670481       21.4375192646
  C         5.8203038225        9.3702213003       21.0911498005
  H        18.1240422239        6.1587443938        8.2706964775
  H        17.5931414973        4.8775442036        7.2277157169
  C        19.1880875842        6.0899886560        6.3738625875
  H         6.0591237985        7.6360122136        0.4070146985
  H         6.1563717456        8.3131555840        2.0383871639
  C         4.3105717081        8.4663520042        1.1450169421
  H        12.8885795404       -1.2232939811       -2.6690435200
  C        13.3164399282        0.2982025572       -4.0959643812
  H         5.1332840089        8.7727232641       21.7019655940
  H         5.3178214795       10.2744811767       20.9338636002
  C         7.1362801025        9.6306326712       21.8047620557
  H        19.9850356406        6.2934158621        7.0000862274
  H        19.0656926142        6.9470848953        5.6920062852
  C        19.6512295812        4.8384256249        5.5576020273
  H         3.6931532418        8.0354658094        0.3576832876
  H         3.6636964722        8.2391750593        1.9102063954
  C         4.4284301928        9.9850877660        0.9939346494
  S        13.5958175235        1.9068345104       -4.4829281392
  C        13.6277417687       -0.6711367531       -5.1377183094
  H         7.1317117669       10.5507859449       22.4657555698
  H         7.8749101519        9.6244588560       20.9658240961
  H         7.2913089681        8.8081304841       22.5062328038
  H        20.7709201512        4.6396232595        5.5788055726
  H        19.1748204453        3.9594486361        5.9994471756
  H        19.4203940964        4.9760400888        4.4704624873
  H         5.3095702437       10.1882844707        0.3230118408
  H         3.5137047566       10.2963950670        0.5593955929
  H         4.4864919753       10.4457983486        2.0028706457
  C        14.0839058319        1.3351440557       -6.0524515615
  N        14.1436963701       -0.0434609202       -6.2046900461
  O        13.4659508691       -1.8738776149       -4.9886585186
  S        14.7045603370        2.3000127274       -7.3677992116
  C        14.4613861158       -0.8123826707       -7.4579793337
  H        14.6416049854       -1.8840645773       -7.4046139352
  H        15.3695811465       -0.5514693148       -7.8954561066
  C        13.1829521599       -0.7888951355       -8.3758607740
  H        12.2869631980       -1.1546688824       -7.8631635477
  H        13.2596590285       -1.4273309093       -9.2530503139
  H        12.9401705440        0.2604292421       -8.6692304513
  H        -3.3061857546       14.6586451159       16.2964373306
  C        -2.9678632620       13.6261470246       16.2492202696
  H        -3.9420421444       13.1505921271       16.6106708208
  C        -1.9020176447       13.2837171659       17.3065280794
  C        -2.6029006711       13.1697819495       14.8553108613
  C        -2.5725067658       13.5065199883       18.7216130077
  H        -1.8711589586       12.1703073838       17.1928324604
  H        -0.8998410829       13.7661468743       17.0566119219
  H        -2.0208327353       13.7891618746       14.2266057211
  H        -2.0441840514       12.2997156437       14.9315298527
  H        -3.4887973841       12.8500122810       14.2824244976
  C        -1.5341734467       13.4665361514       19.8584583800
  H        -3.3937445944       12.8370510546       18.8281869910
  H        -3.0368163418       14.4719746669       18.7814394422
  C        -2.1320738734       13.3874670816       21.3063091727
  H        -0.8563301998       12.5902097513       19.8129728746
  H        -0.9048853870       14.3216003163       19.6792725485
  C        -1.0992333735       12.9946559498       22.4869590259
  H        -2.9845953220       12.7206650559       21.4208706084
  H        -2.5786863337       14.3814202155       21.5290678421
  C         0.2427393461       13.8336768170       22.4603149459
  H        -1.5953127248       13.1022264090       23.4923455760
  H        -0.9116576459       11.9220138147       22.4272857567
  C         1.3751466103       13.2097429305       23.3673061721
  H         0.7273073864       13.9615153951       21.4402576198
  H         0.0005948523       14.7779620124       22.9420065006
  C         1.7600622235       11.8808061728       22.7265718342
  C         0.8337789701       12.4888807199       24.5360721300
  C         2.6266896814       14.0992426099       23.6025844358
  C         1.3567937704       10.7237287614       23.3757383914
  C         2.3930044399       11.5309022577       21.5182363053
  C         0.8677534437       11.1439183125       24.5814702303
  C         0.2997842788       13.0889575343       25.6549148577
  H         2.7353131282       14.6526863625       22.6685479050
  H         2.4100650314       14.7704596910       24.3845158945
  C         3.9536371770       13.3835432519       24.0291732606
  S         1.7213098281        9.2227397963       22.6166310295
  C         2.3231774840       10.1378255020       21.2627787635
  H         2.7040817164       12.3206481390       20.8619120264
  C         0.4367296405       10.4272611690       25.6626357597
  H         0.5014322187       14.1495704661       25.7756242851
  C        -0.1148945545       12.3865419423       26.7659829927
  H         4.1983078097       12.5806441988       23.3876668133
  H         3.6822519211       12.8279357645       24.9281959726
  C         5.1971221095       14.3082141220       24.0965311939
  C         2.7013111419        9.5009645106       20.0210644189
  C        -0.0596103795       11.0156848710       26.8276007617
  H         0.4607551613        9.3401794234       25.6888708416
  C        -0.5598956986       12.7307522444       28.0515176792
  H         5.9595523587       13.8440566085       24.6577698050
  H         4.9610530378       15.1377229273       24.7466902832
  C         5.6841993454       14.7007607936       22.7039907929
  C         2.7352566567        8.1082159026       19.7399279311
  C         3.0427235370       10.3564775322       18.8628014200
  C        -0.5278956268       10.3096176273       28.1289769584
  C        -0.6864417778       11.6419817381       28.8581622998
  S        -0.8424984054       14.2030691743       28.8243836277
  H         5.8976338411       15.8354248998       22.7251593865
  H         4.8127152480       14.5977059287       22.1056996278
  C         6.9923200766       14.0575747796       22.2199276981
  N         2.6042627716        7.0271223420       20.6634423969
  C         2.9447114808        7.5670845532       18.4304367702
  C         3.3007127939        9.8021166133       17.6036341908
  H         3.3072240162       11.4187779900       18.9223559551
  C         0.6039558679        9.5538959093       28.8024840692
  C        -1.8623181782        9.5379453094       27.9485748654
  C        -1.1086904904       12.0298531723       30.1952499954
  C        -1.1367892245       13.3661398237       30.3391717128
  H         7.8231641710       14.8067352591       22.2257424535
  H         7.2098001965       13.2697379149       22.8979710436
  C         6.7786761259       13.2541604255       20.9569175699
  S         2.5350470692        5.6507120084       19.8516999087
  N         2.9245678548        6.2008753854       18.3623156293
  C         3.2337298822        8.3864788361       17.2971079466
  H         3.4862078806       10.5213392694       16.8200605802
  H         0.6232678195        8.5013380634       28.4426898074
  H         0.3551887179        9.4206099741       29.8647662512
  C         2.0438686288       10.1720883808       28.6389189607
  H        -1.6640381556        8.6532649659       27.3270331973
  H        -1.9948225140        9.1194264340       28.9694568949
  C        -3.0765832438       10.3805344945       27.4484412812
  H        -1.1411890829       11.2683985264       30.9786154663
  C        -1.4483300027       14.1261833118       31.5350194986
  H         5.8229404725       13.4982468845       20.4127769982
  H         6.6498763219       12.2219081608       21.2490191151
  C         7.8349582215       13.2027000692       19.8909030889
  C         3.4897996003        7.7159351666       16.0308349095
  H         2.5050477915        9.6452073573       27.8105238096
  H         2.1568745553       11.2573668794       28.4590015613
  C         2.8327985910        9.9518517662       29.9909779619
  H        -2.8219755448       10.9312872668       26.5247309526
  H        -3.2773857344       11.1061086732       28.1615223588
  C        -4.3348764414        9.5030584558       27.1958091300
  C        -1.4974253794       15.5196419161       31.6811942478
  C        -1.4966814306       13.3743906000       32.8309994621
  H         8.7135752610       13.6855492281       20.1680627740
  H         8.1462251329       12.2292426950       19.7294206440
  C         7.4556416683       13.9233544599       18.6030758233
  H         3.3422954690        6.6103999342       16.0575403590
  C         3.8112732293        8.2110429726       14.8198513433
  H         2.5392613303        8.9670649421       30.3950468182
  H         2.4385791036       10.6952505175       30.7250761650
  C         4.3080491934        9.9786418821       29.6734548513
  H        -4.1040792725        8.7436912190       26.4431865925
  H        -4.5197258760        8.9531606671       28.1325312117
  C        -5.5997261179       10.3494838430       26.8333419143
  N        -1.1555257315       16.4601694319       30.7183080282
  C        -1.7721904792       16.1788342045       32.8942561215
  C        -1.7558112759       14.0117089092       34.0482502463
  H        -1.2875893819       12.3314723592       32.7998507724
  H         6.8081332000       13.2293988081       18.0145504208
  H         6.8138112132       14.7740861334       18.7619107078
  H         8.3062206309       14.3523257626       18.0661026588
  S         4.0544400970        9.8232788114       14.3576636011
  C         3.9797242157        7.1298880733       13.7741899218
  H         4.3705143019       10.5413076511       28.7577357986
  H         4.8780888337       10.5390980890       30.3417942473
  C         4.9320124476        8.5472284063       29.3940459990
  H        -5.2419258039       11.2145339968       26.2755415909
  H        -6.0322502118       10.6076436778       27.7774580942
  C        -6.7175605306        9.6909215251       26.0278581514
  S        -1.3409156207       18.0097907083       31.2940463443
  N        -1.7712533075       17.5784903474       32.7544333780
  C        -2.0508351651       15.4553131655       34.0616447279
  H        -1.8753420682       13.3454435957       34.8332662584
  C         4.4008593276        9.0442424854       12.7566703995
  N         4.4211956952        7.7172365584       12.6340242696
  O         3.5887494446        5.9965040249       13.8896498399
  H         5.8322926782        8.7479428184       28.8492503906
  H         4.2711390325        7.9880888977       28.7383849191
  C         5.2373464514        7.8542660790       30.6568478755
  H        -6.3214121512        9.1326214277       25.2361667589
  H        -7.2907531513        8.9646933604       26.6243137827
  C        -7.8370261024       10.6903392213       25.6217983264
  C        -2.4179666525       16.1580105832       35.1780202151
  S         4.6406385916        9.9685053969       11.2161552129
  C         4.5796098278        6.9665898591       11.3164014369
  H         5.3319019418        8.5656561867       31.4885790842
  H         4.4387902055        7.1993722788       30.8035471257
  C         6.4476931838        6.9957275567       30.6447039577
  H        -7.4755494016       11.1143212770       24.7580450046
  H        -7.9574879972       11.5603572159       26.2577497158
  C        -9.2594008375       10.0484387164       25.5059396908
  H        -1.9153699435       17.0834062264       35.2352200972
  C        -2.9933475654       15.7684990695       36.3395567952
  H         5.3117451346        7.4818979196       10.7048413212
  H         4.9052225109        5.9319401218       11.5243892467
  C         3.2828247183        6.8365823147       10.5447994688
  H         7.3087971460        7.4443017481       31.0616512606
  H         6.6207667310        6.6664586824       29.6912234089
  C         6.2246116320        5.7873640443       31.4795302386
  H        -9.8556100595       10.3512447166       24.6373944536
  H        -9.1104691412        9.0295501787       25.2704114803
  C       -10.1147977313       10.0391889580       26.7931767485
  S        -3.6962594428       14.2294714297       36.5925746844
  C        -3.0553955997       16.7025781171       37.4713004375
  H         3.2282826265        7.5937018883        9.7619268250
  H         3.1732037302        5.8735534205       10.0435692461
  H         2.3747996402        6.9994818084       11.1204026646
  H         6.9402740739        5.0879687757       31.2266488206
  H         5.2713526673        5.3113714025       31.5202899852
  H         6.4652283764        6.1110561376       32.5090022038
  H       -10.3362114015       11.0056042952       27.1956572696
  H        -9.5860595142        9.4264663583       27.5340004307
  H       -11.1062943397        9.5797523626       26.5688123745
  C        -4.0026977939       14.7978927073       38.2247391065
  N        -3.7257769607       16.1188733181       38.4296590632
  O        -2.6111632199       17.8472611910       37.4450820952
  S        -4.8622995482       13.9049637756       39.5247105270
  C        -3.9440984576       16.8527085957       39.6533429398
  H        -4.0082354112       17.9370561692       39.4458672240
  H        -4.8639353372       16.5839357844       40.1301927534
  C        -2.7791226278       16.7501739494       40.6481194422
  H        -2.9821689506       17.3465857987       41.5468593780
  H        -2.5574901424       15.7401678694       40.9825813360
  H        -1.8718718690       17.2023984279       40.2573513611
