352
i=
  H         2.3924565842        1.2490531049       13.7066543864
  C         3.3737497094        1.7063656549       13.4382012686
  H         4.1452887224        0.9176247244       13.2797252618
  C         3.1339963627        2.4583897783       12.0807492296
  C         3.9318597388        2.6616868178       14.5078711269
  C         4.3108548573        2.7160656820       11.1751113500
  H         2.5627846629        3.3419878997       12.4570977853
  H         2.4449483441        1.7875287930       11.5346084736
  H         4.6606358030        2.1630479742       15.1545522984
  H         3.1094483952        2.9869951486       15.2141469394
  H         4.4219618204        3.4741252533       14.0661514247
  C         4.9544983718        1.3864120393       10.6672626062
  H         4.0641288743        3.4582448071       10.4307965391
  H         5.0831515381        3.1919400163       11.7230743102
  C         5.3655203476        1.5207538648        9.2357985111
  H         4.1776046557        0.6385404426       10.7390003574
  H         5.7456916197        0.9552689357       11.2247466786
  C         6.4321261702        2.5489813890        8.8830965623
  H         4.5034501775        1.8612885574        8.7069116001
  H         5.6417985639        0.6437070199        8.7642733891
  C         7.7431897534        1.9685850513        9.3098622429
  H         6.4870033219        2.7188963906        7.8424417175
  H         6.0503836671        3.4122334177        9.4160460873
  C         8.9818108531        2.9586583500        9.4095943463
  H         8.0085205738        1.2234154494        8.6041976541
  H         7.7389036854        1.4301513656       10.2457232290
  C         8.6152455000        4.2349047879       10.0386296752
  C         9.2733834088        3.5871429394        8.1030848149
  C        10.0982163374        2.1761655622       10.0419677132
  C         8.8332461885        5.3454780901        9.2570604999
  C         8.0783509356        4.6321388383       11.2959749367
  C         9.2621615970        4.9668793025        7.9989142969
  C         9.7074348248        2.9838757541        6.9495754454
  H         9.7493106610        1.6876249454       10.9422322233
  H        10.3866286966        1.5015838304        9.1873315283
  C        11.3100916292        3.0301736111       10.5152314717
  S         8.4769709052        6.8719785725       10.0470131602
  C         7.9602213530        6.0139979900       11.4368573009
  H         7.7963515941        3.8891724265       12.0548085289
  C         9.6805728977        5.5653589878        6.8703635524
  H         9.7761782164        1.9129560706        7.0547239761
  C        10.0647621680        3.6144010071        5.7835541049
  H        11.0298923600        3.9121325416       11.1091709673
  H        11.8261299463        3.4916392935        9.6994472593
  C        12.1894618025        2.2906554674       11.4614796426
  C         7.5079427325        6.6745499830       12.6983456872
  C        10.0806775197        4.9406322090        5.6972939201
  H         9.7186995902        6.6174618209        6.8590444393
  C        10.4001632111        3.1478481315        4.5506484207
  H        13.0371460064        2.8809521295       11.5044471619
  H        12.6796815874        1.3349811864       11.1948594831
  C        11.7779867902        2.2099441275       12.9917423068
  C         7.5759735165        8.0507031122       12.9253432195
  C         6.9875636038        5.8008351479       13.7904519411
  C        10.4667762740        5.5493722244        4.3743613651
  C        10.6580293326        4.2140101856        3.7341630122
  S        10.6853019876        1.5584666702        3.8759200304
  H        11.6622482456        3.2546962311       13.4475318479
  H        10.9202526171        1.5985207929       13.1746252963
  C        12.9325636590        1.6376631755       13.8069006202
  N         7.9256484440        8.9919255266       11.9617713926
  C         7.2524198755        8.5517408819       14.1748133143
  C         6.5547597913        6.2891994828       15.0231215164
  H         6.8545189919        4.7499750865       13.6529308336
  C        11.7666596023        6.3940922488        4.4687655890
  C         9.2577982364        6.2660967135        4.0112590894
  C        11.2283938191        3.7666995543        2.5246995270
  C        11.2927384940        2.4334961679        2.4265480243
  H        13.7239535318        2.3944874454       13.7073052335
  H        13.3530192994        0.7915072071       13.3953482473
  C        12.6074380985        1.3775936338       15.2334368079
  S         7.9378780844       10.4351041630       12.7346861606
  N         7.5696703401        9.8701935551       14.2448202677
  C         6.8403805205        7.7905339233       15.2566126692
  H         6.1893143821        5.6183982720       15.8103546802
  H        11.5750721850        7.0433445104        5.2888105649
  H        11.8343359604        7.0759800328        3.6178888409
  C        13.0401889352        5.6667838198        4.9705275329
  H         9.1077146244        7.1615370068        4.6869558798
  H         9.3262726865        6.6153695948        2.9887749628
  C         7.8683610205        5.5482831676        3.9253542462
  H        11.5180787531        4.5332693182        1.8183598955
  C        11.6780943463        1.6890911508        1.1820940927
  H        11.5242899232        1.2523851269       15.2570472558
  H        13.1294760500        0.5332039532       15.5529555144
  C        12.9883026926        2.4213779212       16.2964266315
  C         6.7232429730        8.4488449344       16.5399885119
  H        12.6575993305        5.0150130435        5.7395638813
  H        13.3463814236        5.0308787209        4.1364507015
  C        14.3446127253        6.4828636874        5.2589482426
  H         7.5501062586        5.1379854999        4.8836733772
  H         7.9238322976        4.7562394422        3.1686506870
  C         6.7424655045        6.4052811913        3.3268115377
  C        11.7402391473        0.3083021702        1.0784235860
  C        11.9005884045        2.4840444084       -0.0492417542
  H        12.3131225214        3.3043594737       16.0825896188
  H        14.0687174346        2.5578842771       16.4137802147
  C        12.6190686045        1.9046173854       17.6917385617
  H         6.8442496310        9.5321750217       16.4931017841
  C         6.5118250562        7.9146212926       17.7901998493
  H        14.1817026539        7.2292465817        5.9871896977
  H        14.5187984933        7.0529839108        4.3655523514
  C        15.4405021171        5.5698713815        5.8210222399
  H         6.6024600287        7.2776291970        3.8948077632
  H         7.0168655454        6.6365834083        2.2621856158
  C         5.3782033747        5.7469297927        3.4074488960
  N        11.5914655396       -0.5271659552        2.1557579783
  C        12.1733626142       -0.3539708538       -0.0856965796
  C        12.2904537375        1.8626252520       -1.2287855652
  H        11.7441176572        3.6049996775       -0.0241584428
  H        12.4987644723        2.7625194723       18.3613851521
  H        13.3873442986        1.2723882834       18.0770570859
  H        11.6645620915        1.3432516594       17.6030152255
  S         6.2961089685        6.2570076301       18.2724180137
  C         6.4166858202        8.8194601157       18.8994394867
  H        14.9358443524        5.1397569344        6.6894277971
  H        15.7590437414        4.7849355138        5.1737450847
  C        16.6335897582        6.3422363182        6.3963135164
  H         5.0254375084        5.6906782306        4.4128172421
  H         5.3913291949        4.8275752510        2.9704869962
  C         4.4093031395        6.5732510934        2.6589060975
  S        11.7224676632       -2.0539150851        1.6072010441
  N        12.2482537793       -1.7100687597        0.0989827012
  C        12.3718481234        0.3519261343       -1.2853310467
  H        12.4911152037        2.5570952490       -2.0599158370
  C         5.9367815182        6.8211995949       19.8812522066
  N         5.9620040449        8.2056294134       19.9986455963
  O         6.6830877880       10.0057147794       18.8030314800
  H        16.8992124680        7.2128688216        5.7153329641
  H        16.3666086319        6.7411509053        7.3476379481
  C        17.8799294276        5.4378452564        6.6020953807
  H         4.9009881686        6.6839314585        1.6824418089
  H         3.5105126590        5.8994406380        2.6414122190
  C         3.9086293695        7.9554262086        3.2429430830
  C        12.5543404891       -0.3874453886       -2.4780315916
  S         5.3984641654        5.8014432720       21.1482683156
  C         5.8171953603        8.9725088500       21.2420354609
  H        18.0411565795        5.4557023414        7.6779611771
  H        17.5749798079        4.3776068646        6.4282394132
  C        19.1115697502        5.7311930566        5.8755000429
  H         3.7879617328        7.9726017116        4.3453101774
  H         2.8918355419        8.1183267849        2.8811411194
  C         4.8018143956        9.1172876503        2.7753114021
  H        12.3261921039       -1.3895633139       -2.3874746773
  C        13.1010038084       -0.0976860131       -3.6945874909
  H         5.3154126497        8.4333536898       21.9591728876
  H         5.2982551369        9.9293731093       21.1465521289
  C         7.1563589580        9.2846110954       21.8348241374
  H        19.0719119062        6.7465342643        5.5922320503
  H        19.0373358328        5.1205624579        5.0263829046
  C        20.4004017328        5.5079431606        6.6897041948
  H         4.9535806851        9.8185371522        3.5790849744
  H         5.8102182330        8.7444951109        2.5446440355
  C         4.3636525120        9.7624751285        1.5195837476
  S        13.4226610823        1.4846602818       -4.3008666360
  C        13.3256164990       -1.1667575563       -4.6124793869
  H         7.3070702956        8.6221632445       22.6716453481
  H         7.0786141137       10.3096204585       22.2648539716
  H         8.0537155940        9.2396280149       21.1786584005
  H        21.0557576532        4.8299914724        6.2188561604
  H        20.9599060871        6.4904745457        6.9174708266
  H        20.2063823639        5.1638408721        7.6982269659
  H         4.6787268722        9.3329570026        0.6056384204
  H         3.3068423933       10.0079451037        1.4688718985
  H         4.8624913453       10.6468686605        1.6519379107
  C        14.0102939376        0.7076568890       -5.8047319603
  N        13.8791818886       -0.6495292536       -5.7818544469
  O        13.1599937274       -2.3845860238       -4.3060630792
  S        14.3920144423        1.5346738835       -7.3669196277
  C        14.1772943331       -1.4350725021       -6.9498680079
  H        14.3930501159       -2.4229190282       -6.6157174921
  H        14.9080658738       -1.0557933708       -7.5985420860
  C        12.9485337273       -1.4971400209       -7.8464559496
  H        12.0902755884       -1.5044253805       -7.2207082837
  H        12.9422731599       -2.4763308641       -8.4101091819
  H        12.9199028250       -0.6583316720       -8.5296434976
  H        -3.0234750116       14.8866856621       16.1859122579
  C        -3.0718763460       13.8043552283       16.2553587775
  H        -4.1310721394       13.5797788980       16.5024709968
  C        -2.1741331322       13.3243458018       17.3499583787
  C        -2.6875356145       13.2474106887       14.8841935637
  C        -2.6885841949       13.7592007405       18.7163091394
  H        -2.1129802756       12.2581112030       17.3236635656
  H        -1.1371259392       13.7663140768       17.1642302242
  H        -2.8517021869       12.1615692001       14.8156256090
  H        -3.1208787110       13.8064076537       14.0492052848
  H        -1.6234332590       13.0955757859       14.7466281597
  C        -1.9054903244       13.0198517396       19.7971444032
  H        -3.7241524038       13.6534933940       18.8369865047
  H        -2.4882276132       14.8417057180       18.7482744292
  C        -2.3565974878       13.5074190819       21.2453639688
  H        -1.9866992382       11.9637770950       19.6500628146
  H        -0.8127903629       13.3041164046       19.6892569500
  C        -1.4888280873       12.9566589057       22.4263169927
  H        -3.3446280449       13.1432974261       21.4591367335
  H        -2.4611947629       14.6058339580       21.3110712605
  C        -0.1571359422       13.7607960619       22.6195537071
  H        -1.9983583804       12.9022400618       23.3728924705
  H        -1.2847361701       11.8963914004       22.1653469015
  C         1.0640218434       13.1320303709       23.3951845755
  H         0.1796835143       14.0840250562       21.6196196040
  H        -0.4841215326       14.6479325553       23.1155304835
  C         1.3596823725       11.8062528899       22.6887649566
  C         0.6680362764       12.3923099201       24.6576200917
  C         2.2886482016       14.1172210611       23.4664273704
  C         1.2534610630       10.7151699335       23.5182101277
  C         1.6647829825       11.2984611926       21.3618309713
  C         0.7572348730       11.0382877325       24.7351827829
  C         0.1438538075       12.9757865992       25.8159551805
  H         2.5202871936       14.4712394934       22.4466009555
  H         2.1035480697       14.9590053291       24.0792752355
  C         3.5684817874       13.3817725787       23.9392911648
  S         1.7206016324        9.2291410673       22.8070542369
  C         1.9195311911        9.9594925425       21.3508643992
  H         1.7674501028       11.9976046790       20.5685790293
  C         0.2811751530       10.3234550796       25.8034758297
  H         0.1314359583       14.0510246994       25.9539766044
  C        -0.3322400760       12.2973847924       26.9055034892
  H         3.9371019458       12.6684722855       23.1382987069
  H         3.2889058838       12.7258202545       24.7575922896
  C         4.7099240935       14.3956322741       24.3227894643
  C         2.4682116405        9.2262226855       20.1281163598
  C        -0.3074168313       10.9512014678       26.9685345923
  H         0.3331594364        9.2079679475       25.8886030331
  C        -0.8796729618       12.6467670161       28.1471673516
  H         5.4326149414       13.8471980910       24.8806787238
  H         4.2684342660       15.2073094429       24.9064727776
  C         5.2628000159       14.9811923482       23.1122849317
  C         2.4266852405        7.8387813987       19.8539694286
  C         2.8348757008       10.0929634364       18.9420619726
  C        -0.7021246389       10.2152035012       28.1843762718
  C        -1.0675195888       11.5151114466       28.9043264087
  S        -1.2694172858       14.1396541152       28.8913141358
  H         5.7951049795       15.8733462446       23.4251414264
  H         4.5068096797       15.2817467147       22.4158145096
  C         6.1769385761       14.1001400907       22.2556369623
  N         2.1425696457        6.8692004096       20.7888205330
  C         2.7013156114        7.2564189044       18.6431033640
  C         3.1073135572        9.4556567729       17.7054966468
  H         2.8342229862       11.1495595536       19.0578515563
  C         0.3794565336        9.2904273121       28.8253018173
  C        -2.0796466244        9.5432234438       27.9176373349
  C        -1.4781951345       11.8171744512       30.2200743813
  C        -1.5348006155       13.2094915852       30.3960444492
  H         7.1902167081       14.5840672093       22.2424477416
  H         6.2043387556       13.0651566959       22.6902338451
  C         5.6052577034       13.8909867754       20.8786979373
  S         2.1178955229        5.3971705256       20.0736333670
  N         2.5387199445        5.8856464499       18.5857214669
  C         3.0370431820        7.9769358843       17.4703503715
  H         3.3830310896       10.1177081331       16.8466435066
  H         0.7468173067        8.5733261965       28.0659899655
  H        -0.1400764162        8.6284101312       29.5297667762
  C         1.5295267836       10.0510581656       29.4481858283
  H        -1.9105159974        8.8512206009       27.0295280574
  H        -2.2916163712        8.8012169398       28.6479884812
  C        -3.3235090781       10.4478398552       27.6815764948
  H        -1.5915742161       10.9796971120       30.9014138817
  C        -1.8233789080       13.8278396670       31.6869330288
  H         5.9144441903       14.7239224832       20.2176874181
  H         4.5303061695       13.9323803523       20.9038513278
  C         6.2014582617       12.7595354472       19.9670457311
  C         3.2867995094        7.3074885064       16.2072521757
  H         2.0561915545       10.4373472030       28.6175747410
  H         1.2563405887       10.8197949116       30.1741294697
  C         2.5407620145        9.2485596525       30.1836887604
  H        -3.1064417032       11.3134674966       27.0149796093
  H        -3.6677708213       10.8208543043       28.6086169874
  C        -4.5044169313        9.5650885534       27.2115665614
  C        -1.9440340212       15.2186195056       31.8630478162
  C        -2.0593472903       13.0641735075       32.9196559826
  H         6.7593462487       12.1151896928       20.5907967073
  H         5.4173324671       12.1243269991       19.4735810038
  C         7.0363831489       13.2941650966       18.8782444252
  H         3.3617100417        6.2100286290       16.3263867845
  C         3.3868065162        7.7640710249       14.9018334005
  H         2.8171324570        8.3710816166       29.5636278262
  H         2.0958577101        8.8452180930       31.1075858215
  C         3.6810087009       10.0085909486       30.7772031121
  H        -4.1848175589        8.8941329780       26.4488510129
  H        -4.7435850429        8.9292397159       28.0019307882
  C        -5.6644973618       10.3706361033       26.7293623414
  N        -1.8278144420       16.2002162093       30.8711110845
  C        -2.1637010571       15.7816532338       33.1343430856
  C        -2.2996636787       13.6381113599       34.1575476505
  H        -1.9345604965       11.9481525768       32.8790840351
  H         6.4183397857       13.6312469545       18.0495807676
  H         7.7113969005       14.1014430896       19.2025767950
  H         7.6138027163       12.5217069580       18.3874985306
  S         3.5957082974        9.4287315042       14.4184273068
  C         3.5188356748        6.7912353491       13.8362676741
  H         3.8491646361       10.9654153586       30.2952126102
  H         3.3029513255       10.1941488099       31.7844833530
  C         4.9423179047        9.2394047132       30.8369411167
  H        -5.2790640968       11.1141671574       26.0040420160
  H        -6.1400784898       10.9035967001       27.5624779146
  C        -6.7502632873        9.5597539600       26.0876215518
  S        -1.9501721873       17.6608770636       31.5037675699
  N        -2.2554626074       17.1812630888       33.0615300522
  C        -2.3934556493       15.0754238575       34.3494481119
  H        -2.4654354837       13.0194596888       35.0769239257
  C         3.9553892374        8.8000242004       12.8336556370
  N         3.8640648028        7.4372855926       12.7014038569
  O         3.4468777457        5.5794846548       13.9825242590
  H         5.6074597153        9.7979306361       31.4191030375
  H         5.3580770070        9.0123261536       29.8817709730
  C         4.8941883407        7.9034944222       31.6382947366
  H        -6.2623479779        9.0123092769       25.3290547010
  H        -7.2381975888        8.8258459647       26.6516491744
  C        -7.7405943561       10.5251972520       25.4843531141
  C        -2.7741640039       15.8437576803       35.5215864314
  S         4.4343600383        9.6284493481       11.3676289642
  C         3.8264828450        6.7051359841       11.4273778879
  H         4.7577562834        8.1106604788       32.7219627923
  H         3.9592569343        7.3898298230       31.3576981200
  C         6.1180803398        6.9552207079       31.4982213037
  H        -7.2340124447       10.9456234138       24.6755164955
  H        -7.9012966026       11.3766887013       26.1310537466
  C        -9.0121297022        9.8772297680       25.0230058668
  H        -2.4812861125       16.8501405847       35.5415979428
  C        -3.3583490903       15.4265601692       36.6720593263
  H         4.5883724341        7.0547777065       10.7336370828
  H         4.0536734529        5.6720496820       11.6088573983
  C         2.4513279501        6.6723467985       10.8265389151
  H         6.2953624935        6.5191925443       32.4983058972
  H         7.0394932646        7.5926555664       31.2727049881
  C         5.8809908534        5.7978024105       30.5334308130
  H        -9.5412436020       10.3864084179       24.1484502055
  H        -9.0556860564        8.7963097272       24.8044402783
  C        -9.9308952761        9.8403091827       26.1592465767
  S        -4.1911619741       13.9618706307       37.0254987077
  C        -3.4463260803       16.4333949800       37.7287091212
  H         2.3323206675        7.4723736812       10.0832193823
  H         2.3064625958        5.7099117365       10.3463391006
  H         1.6965336970        6.8379002685       11.5593215358
  H         6.5409234078        4.9129952034       30.6141427644
  H         6.1170003739        6.2071068383       29.5660357813
  H         4.7528135521        5.4427695814       30.5247458087
  H       -10.5987542844        9.0369206606       26.1430451812
  H       -10.5163905599       10.6902732815       26.3766323623
  H        -9.4531287362        9.8202017359       27.0452244311
  C        -4.5276623770       14.6993407139       38.5892425163
  N        -4.1042190568       15.9619344117       38.7922599592
  O        -2.9421986415       17.5387540738       37.5667727635
  S        -5.3404516297       13.7924179742       39.8362935527
  C        -4.1255417523       16.6709982533       40.0195225353
  H        -4.4301811948       17.7378199488       39.8193006262
  H        -4.8114535898       16.2936005245       40.7392501699
  C        -2.7195897467       16.5932989151       40.5960076167
  H        -1.9269933993       17.1000392335       39.9809584690
  H        -2.7925031369       17.2226082531       41.5240065610
  H        -2.2150893918       15.6131735840       40.7269811901
