352
i=
  H         2.9629454326        1.3164096586       13.8990720826
  C         3.6743372576        1.7219036949       13.1631521344
  H         4.4322840391        0.9739733733       12.9397072242
  C         3.0035190271        2.2754313889       11.9580370512
  C         4.2585725527        2.8204607402       14.0974625353
  C         3.9151073387        2.6815064906       10.7980023787
  H         2.6130540224        3.2215328709       12.2662003011
  H         2.1833994867        1.7257145625       11.6043621376
  H         3.6309266436        3.1346879855       14.9061919221
  H         4.4392625992        3.7267461957       13.5307448387
  H         5.0653341876        2.3549936836       14.6850595544
  C         4.4631346544        1.4513743527       10.0801881853
  H         3.3832820222        3.2283849114        9.9501645228
  H         4.7403560902        3.3622103714       11.0220411114
  C         5.1223137710        1.7203934835        8.7046515436
  H         3.6095332210        0.7558652702        9.8710393028
  H         5.2029197322        1.0098362300       10.7510923093
  C         6.4291313378        2.4883396448        8.7161344570
  H         4.4167741991        2.1640530285        8.0169260237
  H         5.3798425577        0.7475579100        8.2847253058
  C         7.5914846129        1.5835239064        9.1025780578
  H         6.6697381612        3.0425267628        7.7669389425
  H         6.3379905720        3.2258997567        9.5212707466
  C         8.8153733812        2.4066638029        9.5117785906
  H         7.7517020149        0.8971535967        8.2885878528
  H         7.3378547715        0.9549939660        9.9035311332
  C         8.5246485122        3.7421121263       10.2344150943
  C         9.3014966396        3.1587040766        8.2533122214
  C         9.8974292671        1.6123016708       10.2559363708
  C         8.8990137002        4.8351466612        9.4930578669
  C         7.9839325420        4.1566120798       11.4785617868
  C         9.3463668135        4.5381901104        8.2365411658
  C         9.8335195894        2.5507468074        7.0913913296
  H         9.4265610096        0.7630080362       10.8945935449
  H        10.5812333837        1.0941305323        9.6208182360
  C        10.8748413909        2.4088072268       11.2114612912
  S         8.6442130397        6.3396910534       10.2745814667
  C         7.9811173748        5.4976220830       11.6673338399
  H         7.6401928254        3.3149559011       12.0970310773
  C         9.8600760024        5.1978310050        7.1123844720
  H         9.9380467391        1.4358419311        7.1248642693
  C        10.2420310239        3.1976378455        5.9777965052
  H        10.3297965632        2.9912978176       11.9953946047
  H        11.3620190526        3.0988102094       10.5534312331
  C        12.0363335862        1.6187475748       11.8047009211
  C         7.4190889041        6.2190360732       12.8556814659
  C        10.2425551913        4.5727095064        5.9068890301
  H         9.8375911315        6.3111562216        7.1910579940
  C        10.7393241010        2.8504287074        4.7337496406
  H        12.6864620258        1.2676753772       11.0172087441
  H        11.6196956002        0.8292861314       12.3967511464
  C        12.7832406908        2.5398072687       12.7667557797
  C         7.3327223283        7.6315888221       12.9745619100
  C         6.9489618166        5.4283110290       14.0286657528
  C        10.5929305812        5.2593348324        4.6340613408
  C        10.8514182598        3.9235908222        3.8928246436
  S        11.1661502526        1.4227375513        3.9727700726
  H        13.3942089985        3.2653570611       12.2160569640
  H        12.2053117841        3.3170621289       13.2781006253
  C        13.6048891036        1.6604235083       13.7447070011
  N         7.6358755216        8.5624296761       11.9480323886
  C         6.9786974596        8.2811950380       14.2011155419
  C         6.5176922660        6.0706234910       15.2470259848
  H         7.0164103152        4.4052981436       13.9519605620
  C        11.9692283423        6.0559403571        4.7547431099
  C         9.4884255920        6.1219528097        4.0030193772
  C        11.3209957096        3.5678026998        2.5796233401
  C        11.4793288007        2.1965346211        2.4273067226
  H        14.3533539559        2.3185367493       14.0647809184
  H        14.0258886309        0.9391007688       13.1541286583
  C        12.9287561031        1.0369917550       14.9532026300
  S         7.6098413878       10.0489903885       12.5763473875
  N         7.1323100237        9.7195096971       14.1115854433
  C         6.6441850165        7.5429820038       15.3887397840
  H         6.2631489019        5.5177182766       16.1462029430
  H        11.8012972640        6.9763958984        5.3108738668
  H        12.3240307743        6.4547142170        3.8061749672
  C        13.1751147288        5.3454672249        5.3698952500
  H         9.2654180884        6.9491442876        4.6908196894
  H         9.8873925490        6.5567187661        3.1194072635
  C         8.2638125155        5.3131413816        3.6534617018
  H        11.5615513705        4.3734947087        1.8454312846
  C        11.7612295740        1.5189739282        1.1739639109
  H        12.0027359220        0.5446193522       14.6527487005
  H        13.5684402678        0.2808793691       15.3718992495
  C        12.7356571962        1.9587059646       16.0951243630
  C         6.4946200165        8.2988267543       16.5855439483
  H        13.0894026293        4.8896628768        6.3676189478
  H        13.5663422881        4.5931706054        4.7503104936
  C        14.3083050421        6.4015399006        5.5644512593
  H         7.7459426066        4.9025757731        4.5470091198
  H         8.5023494126        4.3963868143        2.9913326017
  C         7.4437294947        5.9972825038        2.6059377642
  C        11.8420254587        0.1400137076        1.0085538923
  C        11.8740158833        2.2579062317       -0.1488940562
  H        12.3296665711        2.9244632158       15.7272806155
  H        13.7284697897        2.3122720247       16.5387304364
  C        11.7396506289        1.5242763341       17.1645894906
  H         6.6674903724        9.2859247286       16.4102926988
  C         6.3419549282        8.0147284627       17.9027746492
  H        13.9308793752        7.0067835183        6.3483278103
  H        14.4899778275        7.0389792339        4.7654349099
  C        15.6397038618        5.6576651546        5.9280849233
  H         8.0368344514        6.8151738563        2.3596270585
  H         7.2891713541        5.4298797326        1.6501399210
  C         6.0642490930        6.4681205209        3.1795893718
  N        11.4762447620       -0.7707663688        2.0903945178
  C        12.1960196041       -0.5350453434       -0.1379688652
  C        12.2625120215        1.5887467337       -1.2949475354
  H        11.6620970812        3.3343233479       -0.1711776793
  H        11.2767789318        2.2810502796       17.5677885594
  H        12.1704909089        0.7412736287       17.8978246799
  H        10.8260261602        0.9840063044       16.6989136865
  S         6.0876607442        6.4641999869       18.6515807534
  C         6.4870998780        9.1502258065       18.8798237397
  H        15.2868819187        4.7368264813        6.3678469425
  H        16.1863393042        5.5287522388        4.9365977132
  C        16.6395769574        6.3751264281        6.8375537936
  H         6.1414074170        6.9417081434        4.1203000403
  H         5.3671354431        5.5937986123        3.4058683039
  C         5.4360404450        7.4252950067        2.1377138114
  S        11.6499677166       -2.3123246798        1.4562962071
  N        12.2030594123       -1.9210453067       -0.0024488268
  C        12.5180002852        0.1263729782       -1.3451077654
  H        12.3016225142        2.2801067335       -2.2015024581
  C         6.0598002054        7.3874610306       20.2360297968
  N         6.1980122692        8.7038916000       20.1421156270
  O         6.5075516205       10.3588237369       18.5546114342
  H        17.1833088349        7.1502326919        6.3148453908
  H        16.0061550121        6.8613299070        7.5782773413
  C        17.5189984569        5.3898767899        7.5558726685
  H         6.0620934321        7.9590967211        1.4639819234
  H         4.9944678508        6.7283747885        1.4372650564
  C         4.2432863576        8.2632669912        2.6940711546
  C        12.9372790863       -0.6041386270       -2.4823672388
  S         5.6486679694        6.7165861588       21.8308906777
  C         6.1294063918        9.5649246107       21.3474527062
  H        17.1986355982        5.2096413096        8.5300073235
  H        17.4894364393        4.4992080738        6.9413018879
  C        19.0163346510        5.7261451246        7.6251069255
  H         4.4433438846        8.4271782959        3.7371909518
  H         3.2595966542        7.7670124526        2.7351359647
  C         4.2042922149        9.6752496697        2.1057143262
  H        12.8150693488       -1.6524192550       -2.3807141131
  C        13.4079319669       -0.2259705800       -3.7349555412
  H         5.2642746840        9.3125910888       21.9338076005
  H         5.9207042559       10.5388282783       20.8655339688
  C         7.3620266499        9.5747099038       22.2961330166
  H        19.4978380393        5.2403300336        8.4645213173
  H        19.1038674580        6.7621554455        7.7890440195
  C        19.7381061129        5.2229982532        6.3336147580
  H         3.4791454446       10.2257421528        2.6626223445
  H         5.2332005361       10.2180656019        2.1244984860
  C         3.7599529895        9.6879420310        0.6266979314
  S        13.7675201175        1.3526424472       -4.2498525337
  C        13.5709120667       -1.2380420042       -4.7946189607
  H         7.0700772493        8.9608957727       23.1461312684
  H         7.5015085303       10.5640079186       22.6915667043
  H         8.2993178915        9.2292544034       21.7979777113
  H        19.8800574364        4.1954339573        6.3571575087
  H        19.2579684690        5.4013205356        5.3959197022
  H        20.7735349093        5.7581745472        6.3375218117
  H         3.8823668611       10.6221179031        0.1542173169
  H         4.2360862625        8.9680504535       -0.0844196584
  H         2.6978722475        9.3844159430        0.5416533400
  C        14.2595323707        0.6833826289       -5.7971350288
  N        14.0148372775       -0.6493069555       -5.8781556639
  O        13.3944462222       -2.4553322450       -4.5924126119
  S        14.6535743940        1.6249180956       -7.2661136183
  C        14.0092118549       -1.3145384858       -7.2028852041
  H        14.2338948718       -2.3612263250       -7.2094977042
  H        14.7837108927       -0.8635018373       -7.9472174895
  C        12.6096071120       -1.1722971548       -7.9063540327
  H        11.8800895596       -1.7217700466       -7.2400571664
  H        12.4577248980       -1.7406483840       -8.8343628961
  H        12.3613097739       -0.0998852445       -8.0066153521
  H        -4.1820446575       14.0479878726       16.3585146757
  C        -3.5570374367       13.1048674116       16.3563220833
  H        -4.2865782037       12.3099924970       16.5624305361
  C        -2.4712937033       13.3503249614       17.4558045136
  C        -2.8793558406       12.8900876959       15.0327450515
  C        -2.8927315254       13.5099758741       18.9278453654
  H        -1.7859646452       12.4664981188       17.3654147642
  H        -1.9239257720       14.2705842406       17.2399546371
  H        -2.3363358277       13.7632588966       14.6692886900
  H        -2.1142916550       12.0622420970       15.0706624503
  H        -3.6146795633       12.5173824079       14.3995859652
  C        -1.7043723886       13.5893464546       19.8780854405
  H        -3.6311177900       12.7624416240       19.1957131293
  H        -3.4364137130       14.4665702746       18.9374052281
  C        -2.2984668596       13.5447344998       21.2986164545
  H        -1.0746163660       12.7269550939       19.6907803213
  H        -1.0467720995       14.4523230731       19.7340526697
  C        -1.4181269859       12.9063810017       22.3915600497
  H        -3.3050126073       12.9945663919       21.2041011017
  H        -2.5395304328       14.5851194977       21.5290388068
  C        -0.2075405032       13.7312274937       22.8425193314
  H        -2.0198845202       12.7284649377       23.2211642995
  H        -1.0475157641       11.9769178542       21.9960155774
  C         0.8784774104       13.0612696487       23.6129311633
  H         0.3787126875       14.1237675332       22.0127501581
  H        -0.5422430163       14.5723202765       23.4620692543
  C         1.3130185478       11.7878788133       22.9634196969
  C         0.4185279792       12.4338847026       24.9503318578
  C         2.1918650746       13.9276319324       23.8192680667
  C         1.2251247809       10.7095000647       23.8568026492
  C         1.7429640979       11.3193422462       21.7213517346
  C         0.7087340467       11.1172390759       25.0889019656
  C        -0.0252380471       12.9861418308       26.1462984680
  H         2.3736109350       14.4158462859       22.8549363049
  H         1.8831244961       14.7580098865       24.4246241108
  C         3.4959472338       13.1814408464       24.3863664880
  S         1.7355255546        9.1925081902       23.1609955352
  C         2.0307985526       10.0240381883       21.6815828576
  H         1.8533197504       12.0729895075       20.9450227309
  C         0.4933342867       10.4352022771       26.2424215408
  H        -0.1918552212       14.0077605948       26.0976879555
  C        -0.1521152030       12.3274248101       27.3370928802
  H         3.8674700418       12.3987703908       23.7859159870
  H         3.2729834685       12.8126033877       25.4189254685
  C         4.6425706788       14.1891202513       24.6351121515
  C         2.5759722687        9.3078656061       20.4938685712
  C         0.0866068299       11.0094531881       27.3841667562
  H         0.5244770649        9.2659745891       26.2006515875
  C        -0.4825201297       12.6905455899       28.5635668392
  H         5.4248998575       13.6277973435       25.1252579419
  H         4.3572723111       15.0060689617       25.2971827834
  C         5.3365785428       14.8532035708       23.4675650004
  C         2.5946122253        7.9319121122       20.2050389933
  C         3.0953249665       10.0943144657       19.3652392486
  C        -0.3103624225       10.2607838282       28.6098819073
  C        -0.7004972624       11.5627273586       29.3398095830
  S        -0.8628248227       14.1500133467       29.4049136379
  H         5.9288351273       15.6734780878       23.8100022235
  H         4.5676881497       15.2415173971       22.8338294105
  C         6.1359532135       13.9488881383       22.5342547501
  N         2.3165747407        6.9454140394       21.1496110925
  C         2.8010110541        7.3955086677       18.9466499692
  C         3.1859400413        9.5606106358       18.0803080215
  H         3.2035518137       11.1827909447       19.4869353863
  C         0.7477110718        9.4197034205       29.2033214125
  C        -1.5169689659        9.3193833113       28.2285938095
  C        -1.0665296307       11.9576039632       30.6292093669
  C        -1.1498956944       13.3030169159       30.8663149607
  H         7.0307281605       14.4484682356       22.6116504948
  H         6.3873915928       12.9739109057       22.8210757825
  C         5.8235136439       13.9384831043       21.0347855464
  S         2.4001026167        5.4880093402       20.4014987343
  N         2.7187500323        5.9950888043       18.8826328139
  C         2.9866977246        8.0915589947       17.8114745269
  H         3.6737624435       10.1798977576       17.3363036207
  H         1.0134301979        8.6393036094       28.5246119950
  H         0.3472608299        8.8204529249       30.0416456465
  C         1.9655181378       10.2508006422       29.6304020084
  H        -1.2677863407        8.5452989056       27.5019182629
  H        -1.7002956475        8.7482188553       29.1524899193
  C        -2.8034031413       10.0921424783       27.6772534631
  H        -1.3242553034       11.1432229124       31.3221372404
  C        -1.5064845263       14.0495068875       32.1156077028
  H         5.4735022422       14.9429830873       20.8618607460
  H         5.0134586563       13.2613931521       20.8087049620
  C         7.1115694506       13.6567362490       20.2459670660
  C         3.0190678633        7.3979633575       16.5194846275
  H         2.4821784133       10.7408231611       28.8848763437
  H         1.6283978098       11.0247209964       30.3679728557
  C         3.0760427073        9.3281793505       30.1903673845
  H        -2.6236478441       10.6947443097       26.7929991059
  H        -3.1383354712       10.8252425359       28.4593235629
  C        -4.0655437314        9.2185293807       27.4605815860
  C        -1.6686963446       15.4432689546       32.2670881867
  C        -1.8344666350       13.2959190657       33.3359057901
  H         8.0242965551       14.1539066887       20.6429681620
  H         7.2021518106       12.6531585164       20.3492872716
  C         6.8938800693       13.8826348853       18.7542234046
  H         2.4718142274        6.4282284257       16.5503901677
  C         3.3676399928        7.7781426773       15.2084905547
  H         3.6601952249        8.8546141681       29.4062682103
  H         2.5896649859        8.5551482480       30.8274960832
  C         3.8946192708       10.2130854990       31.1830434375
  H        -3.9838160039        8.4334890690       26.6929580658
  H        -4.3625243138        8.7087864710       28.4591517779
  C        -5.1549657107       10.0814180210       27.0412519768
  N        -1.3692077455       16.4120526991       31.3201596006
  C        -1.9971795123       16.0972359850       33.4676817242
  C        -2.1631722048       13.9187057981       34.5349609854
  H        -1.8019049127       12.2529797341       33.1341634638
  H         7.1686571212       14.9187985447       18.3871952596
  H         7.5515749887       13.1482682646       18.2550854708
  H         5.9054734417       13.6313591624       18.5182636060
  S         3.8430618377        9.3845253988       14.7430210775
  C         3.3847594899        6.7924314982       14.1449498951
  H         3.7113380246       11.2372401129       30.9062706390
  H         3.4306548862       10.0604033288       32.1281925411
  C         5.3029775574        9.6746541419       31.1463871552
  H        -4.8552969597       10.8195922207       26.3345978319
  H        -5.5776901618       10.6709594668       27.8779272538
  C        -6.3389395086        9.4573913536       26.5034700182
  S        -1.5673937305       17.8772422004       31.8979026287
  N        -2.1233892897       17.4908575117       33.3319359330
  C        -2.2378793640       15.4145320090       34.6709272868
  H        -2.3754557810       13.2618518231       35.3418149384
  C         3.8807383829        8.6817678092       13.1012372558
  N         3.6989758780        7.3696462082       12.9939479086
  O         2.9684499827        5.6548694629       14.3367215162
  H         5.9010301286       10.3689723563       31.7369551022
  H         5.5482907656        9.7798376138       30.0591287737
  C         5.6598001627        8.2096549516       31.7046388056
  H        -5.9576233747        8.9598414681       25.5952954248
  H        -6.8494161651        8.7065933376       27.1373033962
  C        -7.3220804823       10.4537353265       25.9530943714
  C        -2.6394767910       16.1628011572       35.8305883009
  S         4.2728176878        9.7180073926       11.7122596034
  C         3.7192110172        6.6261844387       11.7676475070
  H         6.5644958854        8.3549060544       32.2853308260
  H         4.8413816223        7.8757469042       32.3692170147
  C         5.9621895997        7.1903750265       30.5599535066
  H        -6.6652838046       11.0273400496       25.2575164992
  H        -7.7249807914       11.0831088403       26.7930248504
  C        -8.4989327237        9.7842669870       25.1937901502
  H        -2.5731517945       17.2090701095       35.8299379693
  C        -3.1195744162       15.7882501136       37.0815978565
  H         4.3212591132        7.0636644175       10.9497334331
  H         4.1911812242        5.7172713175       12.1005678050
  C         2.4031552780        6.4917812944       11.0531228456
  H         6.1041419051        7.7502156998       29.6471008071
  H         5.1070348427        6.6197737976       30.3885939010
  C         7.1062854850        6.2078690458       30.8045107466
  H        -8.8236315043       10.4355362054       24.3801239172
  H        -8.0843018311        8.8423589131       24.8549898826
  C        -9.8004004968        9.5724173587       26.0250456939
  S        -3.3769999220       14.1674475120       37.5507305367
  C        -3.3051426516       16.8307674846       38.1248847374
  H         1.5159132607        6.7276704892       11.5867904222
  H         2.3521764575        7.1295516730       10.1989676497
  H         2.3173131317        5.4996144426       10.6604025649
  H         7.0224055282        5.8520713583       31.8355019076
  H         8.0814199987        6.6576240033       30.6433475522
  H         7.0920652487        5.2819018978       30.2410560259
  H       -10.0871562670       10.4902622872       26.5237048933
  H        -9.4750577405        8.9156993017       26.8125602628
  H       -10.5549060643        9.1830291976       25.4613414123
  C        -3.8548344793       14.8190213466       39.0929591739
  N        -3.7939812405       16.1395040975       39.1911184581
  O        -2.9830942428       18.0061198129       38.0176312616
  S        -4.2812151926       13.8264003935       40.4358627576
  C        -3.9237427313       16.8474292315       40.4783655197
  H        -4.3339373127       17.7840340967       40.1304886097
  H        -4.6021587555       16.4071215558       41.2274456272
  C        -2.5259315447       17.0735439963       41.1154490451
  H        -1.9454260035       17.9194657223       40.6540766584
  H        -2.6316241766       17.3171976395       42.1521933803
  H        -1.8222848537       16.1774279544       40.9723602702
