352
i=
  H         5.0067736153        1.6863871512       12.6223893759
  C         4.2793487560        2.4641940319       12.8410903731
  H         4.9329691380        3.3168831091       12.8637333611
  C         3.2628772024        2.6479420131       11.6438627780
  C         3.6171812573        2.1094599120       14.2279750816
  C         3.9936181664        2.8306300268       10.2687256550
  H         2.7238277848        3.5293178948       12.0458026489
  H         2.5675768259        1.7936485604       11.5581810268
  H         2.9347227473        1.3000172965       14.2513658242
  H         3.0400479961        3.0419633394       14.5369217275
  H         4.3008090128        1.9115897497       15.0836204074
  C         4.6760699998        1.5129085290        9.7386567010
  H         3.3066705585        3.1184426735        9.5064338732
  H         4.6747285920        3.6254256056       10.4255779321
  C         5.5235177517        1.6203770460        8.4925573967
  H         3.8286160389        0.8402561549        9.5060324730
  H         5.2254045802        0.9790869196       10.5068035421
  C         6.6957768358        2.5698169698        8.6347758234
  H         4.8403371178        2.0735444856        7.7949725920
  H         5.7784317968        0.6335644498        8.0659345686
  C         7.8916636487        1.7853604638        9.1403150089
  H         6.8978567792        2.9745167972        7.6797336207
  H         6.4185021569        3.3172109200        9.3941451143
  C         9.1074374573        2.6329040204        9.3340366790
  H         8.1979023984        1.0902377271        8.3516604915
  H         7.7374468410        1.2370677373       10.0842532053
  C         8.7997491388        3.9923262491        9.9755256129
  C         9.5390444112        3.3388189736        8.0819831058
  C        10.2830998470        1.9091920744       10.1185538963
  C         8.9502671457        5.1158181037        9.2039839109
  C         8.3393882914        4.2990795415       11.2855434857
  C         9.4544839619        4.7084250691        7.9756688795
  C        10.0753542117        2.7135702320        6.9572395017
  H         9.9078289818        1.5180320961       11.0421047778
  H        10.5576365219        1.0306687864        9.5882340476
  C        11.4787010335        2.7748737200       10.4946579292
  S         8.6569160785        6.6155200039        9.9867959836
  C         8.2771810392        5.6827978820       11.4164479984
  H         8.0976313744        3.4822223150       11.9789668198
  C         9.8634681694        5.3135597730        6.8230334367
  H        10.2688014486        1.7030908186        7.0225329657
  C        10.3607612624        3.3601132054        5.7934964224
  H        11.2253322440        3.7072358979       10.9711292034
  H        12.0734977450        2.9271211680        9.5829769928
  C        12.4536728384        1.9884728685       11.3567259821
  C         7.8269173537        6.3425264002       12.7248499635
  C        10.3447971443        4.6961155372        5.6699100267
  H         9.8234018518        6.3754884470        6.7079828367
  C        10.7694748586        2.9676934657        4.5195076302
  H        13.4027486300        2.5049422990       11.2731292263
  H        12.4267302133        0.9675002376       11.0188771884
  C        12.2095604143        1.9092095923       12.8627987756
  C         7.7742611266        7.6924245067       12.9713097032
  C         7.3938321534        5.4317521278       13.9014142455
  C        10.8458242230        5.3843355171        4.4851084498
  C        11.1656932993        4.0747841327        3.7390038845
  S        10.9961222863        1.3968212129        3.8437697807
  H        11.7716538073        2.9073537290       13.1294483978
  H        11.5835081640        1.1391927200       13.2005343342
  C        13.4456824869        1.7226403257       13.7540690030
  N         7.9639299982        8.6898679503       12.0159045954
  C         7.4623332923        8.2192139949       14.2205608441
  C         7.0125228728        5.9178781479       15.1435394449
  H         7.5346123725        4.3796171923       13.7514432599
  C        12.1182791343        6.3156462105        4.7187583517
  C         9.6979474545        6.1360573291        3.7616531719
  C        11.5349964715        3.5899673318        2.4815592337
  C        11.5415011901        2.1790215781        2.4047792703
  H        14.0889452187        2.6193156059       14.0343467465
  H        14.1664926547        1.0990236653       13.2107948039
  C        13.2371196338        1.0287626715       15.1014413007
  S         7.7940908431       10.1373200559       12.7460706289
  N         7.4309470531        9.6171215325       14.1934844489
  C         7.1147541953        7.4095501138       15.3658548262
  H         6.5937795181        5.2282305256       15.8598806253
  H        11.9415809508        7.0569830043        5.4923114420
  H        12.3056817444        6.9272441621        3.8278622433
  C        13.4759396693        5.6431688564        5.0777544842
  H         9.4622338511        7.0462240903        4.2886311384
  H        10.1225258109        6.4631804785        2.7952124674
  C         8.4883042726        5.3650595793        3.4348845481
  H        11.6204396900        4.2884953376        1.6628137299
  C        11.7014885572        1.4385569244        1.0733211531
  H        12.2211821970        0.7212854475       15.2937218484
  H        13.8741858580        0.1445877359       15.1598067657
  C        13.5580561077        1.9329822311       16.3092700307
  C         6.7729120563        8.0553733190       16.5721463377
  H        13.3979277773        5.1123400334        6.0238704712
  H        13.7721551602        4.9209067508        4.3656491927
  C        14.6464322855        6.5518163390        5.4017803288
  H         8.0885642989        4.8497606246        4.3354101282
  H         8.7497639153        4.6351554790        2.7313283098
  C         7.4349536462        6.3922821201        2.9020670439
  C        11.7378522865        0.0354436362        0.9053952564
  C        11.9184112515        2.2156164275       -0.1213598704
  H        13.4291915892        2.9744339359       16.0011719940
  H        14.6306287629        1.8327389527       16.5609843895
  C        12.5924473126        1.6792120674       17.4164934817
  H         7.1506577347        9.0065145209       16.5228155960
  C         6.4239207139        7.5782448444       17.8370611653
  H        14.5187928134        7.0269443066        6.3628619938
  H        14.6505302711        7.2841188369        4.6065188134
  C        16.0429209010        5.8251565201        5.5588863253
  H         7.1951697814        6.9591852346        3.8169007765
  H         7.7973952313        7.1101078150        2.0970403133
  C         6.1089846192        5.6591600774        2.4191450807
  N        11.5927026032       -0.9009353224        1.9332211034
  C        12.0996021040       -0.5491261624       -0.2791196881
  C        12.2394850246        1.5988222536       -1.2943222861
  H        11.7344851098        3.2787767357       -0.1093510006
  H        11.5856670366        1.6854812591       17.0872704668
  H        12.5935438274        2.4610227322       18.1959733668
  H        12.7017461868        0.6922665828       17.7951787561
  S         6.0920508083        5.9786089715       18.2884411946
  C         6.4349207265        8.5702231232       18.9150652275
  H        16.3408297890        5.0806246501        4.8543618492
  H        16.8153103646        6.5256416226        5.4897350138
  C        16.1563290497        5.3262472119        7.0564834378
  H         5.6977258988        5.1968481149        3.3268028368
  H         6.4172258637        4.7990174623        1.8345412635
  C         5.0495119380        6.5676738560        1.8427284597
  S        11.5620057235       -2.3951457082        1.3145572330
  N        12.0331580219       -1.9318844458       -0.2013408413
  C        12.3569006980        0.1497272303       -1.4310063132
  H        12.4145380271        2.3237275433       -2.0387055918
  C         5.9676687148        6.6361496151       19.9810039971
  N         6.0455088592        7.9781175752       20.0770476727
  O         6.6347977054        9.7417517376       18.7732667481
  H        16.0037365122        6.0521832956        7.7194277163
  H        15.4096473301        4.6418931584        7.3694522995
  C        17.4725483616        4.6013209909        7.2621497520
  H         5.4512943749        7.0792447085        0.9408658758
  H         4.1692969277        6.0168065483        1.4034925741
  C         4.5501922360        7.6660683021        2.8102215321
  C        12.6314901435       -0.5626530250       -2.6804556448
  S         5.7066671165        5.5763983141       21.3295361192
  C         5.8509005753        8.7714565560       21.3210020421
  H        17.5587041342        4.0144178189        8.1957278571
  H        17.6846344821        3.8595363394        6.4548875595
  C        18.7071808633        5.5261280569        7.3695031479
  H         5.3029205142        8.3821895243        3.2568935129
  H         4.0827623615        7.3372763796        3.7825202781
  C         3.6117208726        8.5150326235        1.9981946003
  H        12.3403752074       -1.6405977093       -2.7564263245
  C        13.1734262176       -0.1836623026       -3.8922498783
  H         5.0520123803        8.2907317751       21.9208030817
  H         5.6744925352        9.8136466090       21.1465887625
  C         7.1782864826        8.8226008990       22.1510882830
  H        19.3618442616        5.1885194059        8.2212809739
  H        18.3854351605        6.5436149030        7.6469353822
  C        19.5612953673        5.4775204041        6.1017689088
  H         3.2466773083        7.9551367063        1.1251082302
  H         2.7511007201        8.7001144215        2.5836710821
  C         4.1646351025        9.8464788481        1.6759356524
  S        13.8842015232        1.4296117861       -4.1899100539
  C        13.2976571588       -1.0886781025       -5.0640284224
  H         7.8093745033        9.7208595799       22.2398208772
  H         7.8203532364        8.1130388965       21.7386044535
  H         7.0398760818        8.4789409664       23.2021621833
  H        20.5329412016        5.7418869383        6.4027491339
  H        19.5313458553        4.5889943957        5.4662464658
  H        19.2906139431        6.2928520894        5.5156243318
  H         5.2484598126        9.7611884250        1.3852606778
  H         3.6017431872       10.2878028418        0.8593251786
  H         4.0488796741       10.4999264806        2.5778966883
  C        14.2507286565        0.8577442549       -5.7968821726
  N        13.9401145436       -0.4242796316       -6.0635389263
  O        12.8176346226       -2.1915284750       -5.1092319383
  S        14.7889225207        1.8542918899       -7.1192091666
  C        14.0599707944       -1.0835767202       -7.3431859412
  H        14.1749219972       -2.1444228976       -7.1655593304
  H        14.9432313780       -0.7117949993       -7.8687838795
  C        12.8355139525       -1.0247211514       -8.2290753317
  H        12.4692485378        0.0037743028       -7.9834629059
  H        12.1482980802       -1.8132563441       -7.9752584749
  H        13.0364658067       -1.0297920107       -9.3360728076
  H        -2.9003049425       15.0193707216       16.5513235320
  C        -2.6220370249       13.9578168974       16.7846902296
  H        -3.3445264185       13.4541393855       17.4769617064
  C        -1.3000590083       14.0085283338       17.5606943419
  C        -2.4989293735       13.2260601198       15.4384733693
  C        -1.5974589171       14.4592130197       19.0013748664
  H        -0.9307543185       12.9602899426       17.4455847310
  H        -0.5307572812       14.6251508496       17.0519333794
  H        -3.4948229369       13.1647884817       15.0475009230
  H        -1.8308157141       13.6858181357       14.6766441049
  H        -2.1072283450       12.2109605363       15.5639686272
  C        -1.7299993209       13.3135194876       20.0671987698
  H        -2.4715358982       15.1335101200       19.0075216910
  H        -0.8211440401       15.1115029259       19.3075000500
  C        -2.2265662888       13.6876834866       21.4918854667
  H        -2.4865417511       12.7958229268       19.5145853914
  H        -0.7309760865       12.7143999820       20.0528465449
  C        -1.3323805069       13.0526526348       22.5372736679
  H        -3.2084898885       13.2297347652       21.5616350422
  H        -2.2534514976       14.7615415576       21.7183502759
  C         0.0094650442       13.8051161856       22.6507590440
  H        -1.8782365554       13.0543299942       23.4629444104
  H        -1.1779398999       11.9860771298       22.3520518102
  C         1.1726208201       13.0804865722       23.3802430648
  H         0.3470961924       14.0616411439       21.6213245325
  H        -0.1630692272       14.7299144723       23.1281404956
  C         1.4350388969       11.7670095495       22.6851143156
  C         0.6939279803       12.4115326191       24.6797149267
  C         2.4154165854       14.0070911281       23.6956374238
  C         1.2063949450       10.7368450677       23.5373578287
  C         1.9727405607       11.3499122013       21.4652625161
  C         0.8096250295       11.0963570575       24.7579688499
  C         0.1900221264       13.0467256374       25.8906532693
  H         2.6747675374       14.6305606489       22.7862112049
  H         2.1288924335       14.6530923688       24.5795167926
  C         3.6845969029       13.2660099498       24.0806083471
  S         1.4920339549        9.1560922548       22.8063651323
  C         1.9392574049       10.0013851910       21.4006261812
  H         2.2446860609       12.1306888212       20.7563320748
  C         0.4533505327       10.4692314319       25.9544049092
  H         0.1453425394       14.0896870321       25.9354091291
  C        -0.2383714880       12.3563351513       27.0231142498
  H         3.8007846772       12.3722951880       23.4993490288
  H         3.4600415552       12.9234086246       25.0982785838
  C         4.9665460845       14.1122979567       23.9305567391
  C         2.3929232505        9.2619292912       20.1912699468
  C        -0.0852953901       10.9883426124       27.1283068490
  H         0.5815915131        9.3809449608       26.0522697767
  C        -0.6579818679       12.6960079538       28.2752956437
  H         5.7843564859       13.6446812647       24.4481090733
  H         4.8833002549       15.0484293549       24.4225887120
  C         5.4947597545       14.3140252939       22.4984806026
  C         2.3766524818        7.8627058081       19.9640173928
  C         2.8913496975       10.0700038615       18.9774933516
  C        -0.5995335868       10.2698229733       28.3682944336
  C        -0.7661995426       11.6163747521       29.1503660929
  S        -0.8512127981       14.1595314730       28.9832356770
  H         6.1837937042       15.1284889717       22.5411596522
  H         4.7079108690       14.6589604593       21.8635878586
  C         6.2060303382       13.0689963242       21.9620447644
  N         1.9484494005        6.9617819183       20.8859603628
  C         2.8135963252        7.2837434689       18.7942157426
  C         3.3455430440        9.4835671703       17.8181063517
  H         3.1786359347       11.1279649739       19.1771736348
  C         0.5385218649        9.4344228075       29.0521815253
  C        -1.9521932910        9.4884856127       28.2120123344
  C        -1.1312641178       12.0082140324       30.4192926649
  C        -1.2126181266       13.4154442977       30.5094272361
  H         7.3308167736       13.0725736480       22.2109041116
  H         5.7409717293       12.2148089418       22.4586137678
  C         6.1412937565       12.7558591367       20.4905393915
  S         1.9763973325        5.4617143275       20.1512082147
  N         2.7698424489        5.8975698183       18.7792353198
  C         3.2076061771        8.0318741585       17.6599945114
  H         3.7006802560       10.1028774592       17.0234270770
  H         0.8024237114        8.5708885182       28.4511363751
  H         0.1159787009        9.0698087149       29.9253309612
  C         1.7730286562       10.2284474180       29.6116346776
  H        -1.9352001464        8.6732783850       27.4570107754
  H        -2.1401687668        9.0735995313       29.2331227547
  C        -3.0908216071       10.3719981308       27.8619988627
  H        -1.2468560470       11.1871084776       31.1257932363
  C        -1.4900141488       14.1796848020       31.7339312292
  H         5.1177561454       12.7817289831       20.0268545392
  H         6.4969201731       11.6695370397       20.3355011279
  C         7.1539211838       13.5848514915       19.7122638732
  C         3.3568211554        7.4006224889       16.3564424694
  H         2.0713807024       11.0400332386       28.9051748504
  H         1.5568426590       10.8718705750       30.5069861358
  C         2.9903558474        9.3791715949       29.8796670920
  H        -2.8103915645       11.0365817067       27.0811915894
  H        -3.3052193641       11.0812808518       28.6699163720
  C        -4.4000190436        9.5686304608       27.5413100333
  C        -1.5354916232       15.5641811623       31.8295610697
  C        -1.7097927047       13.4431398075       33.0022103765
  H         6.9473797474       14.5608258338       19.9181571490
  H         8.1223822840       13.3839321881       20.1801089020
  C         7.2050287618       13.6217011089       18.1965009383
  H         3.1368248865        6.3275056312       16.2560933578
  C         3.6515575727        7.9155977981       15.1229151879
  H         3.4349047226        8.8495816361       29.0728461527
  H         2.7393674916        8.5490401184       30.5489056298
  C         4.0138360837       10.4197226900       30.4926379463
  H        -4.1760503439        9.1768978424       26.5536241753
  H        -4.5696957094        8.7358696132       28.1959068588
  C        -5.5308384905       10.5931559244       27.4210614895
  N        -1.2112756644       16.4554437004       30.8037086476
  C        -1.9268684602       16.2056527789       32.9595492768
  C        -2.0607659294       14.1459073730       34.1738153460
  H        -1.5268608434       12.3327287104       32.9639839178
  H         7.9049859204       14.3503609837       17.7881978860
  H         7.7182676224       12.7271185339       17.8863387486
  H         6.2164403146       13.7483738747       17.7394897675
  S         4.0721591601        9.4933758048       14.6861896151
  C         3.8577381393        6.8835745711       14.0156038424
  H         4.0180203977       11.2746772007       29.8350886023
  H         3.7853374105       10.6806981591       31.5021630603
  C         5.4185161439        9.9441755820       30.7297906230
  H        -5.3242417110       11.5229220788       26.7461976826
  H        -5.7041816225       11.0193176853       28.4344670841
  C        -6.8576107866        9.9986348451       26.8915435416
  S        -1.7483310065       17.9351901742       31.2728038387
  N        -2.3294596097       17.4985043541       32.7034617070
  C        -2.2552908868       15.6040885051       34.1822659263
  H        -2.4247037332       13.6575939415       35.0072262511
  C         4.3437277896        8.9096689306       13.0885863097
  N         4.2643978352        7.5601445043       12.9282823210
  O         3.5857973031        5.6924572009       14.0572059527
  H         5.8523292205       10.8374904876       31.2181814141
  H         6.0017267656        9.7919191070       29.8471848548
  C         5.5586138464        8.7046468248       31.7037498842
  H        -6.7079405039        8.9216289446       26.6835765902
  H        -7.5785258028        9.9264106858       27.7904937650
  C        -7.2696314214       10.7017002398       25.7133324030
  C        -2.6944327458       16.4288733327       35.2816198861
  S         4.4753457016        9.9550442487       11.5780457046
  C         4.3619914476        6.8828910402       11.6054924098
  H         6.2609832439        9.0716367111       32.4288692414
  H         4.6405341756        8.5398076331       32.2272234357
  C         6.0799727083        7.4721045431       30.8864909218
  H        -6.3962181279       10.6814001883       25.0535443013
  H        -7.4029160308       11.7413502158       25.9356829203
  C        -8.4655835454       10.1329514932       25.0438580917
  H        -2.3311466820       17.4705922468       35.2071355683
  C        -3.2269521690       16.1635776380       36.5337292267
  H         5.2509105539        7.3032538682       11.0250363592
  H         4.6724618205        5.8448386327       11.7343768716
  C         2.9223793760        6.9197602285       11.0051783324
  H         7.0752608228        7.7977112152       30.5356448473
  H         5.4960005290        7.1903023927       29.9778922773
  C         6.2223976551        6.2017125924       31.7307580282
  H        -8.7909214748       10.7384867338       24.1695300619
  H        -8.1054431772        9.2332601924       24.6154767202
  C        -9.6828314471        9.7844239461       25.9433387875
  S        -3.6979970588       14.6454165166       37.1560902092
  C        -3.5105285845       17.3061528489       37.4909084648
  H         2.7992790373        6.1587091971       10.1684626536
  H         2.1259672678        6.6997283350       11.7551056031
  H         2.5941577869        7.8878460849       10.7227594382
  H         6.6189078787        5.3021211848       31.3165740549
  H         5.2325399107        5.8884422638       32.1255979997
  H         6.8311573858        6.4252253099       32.6093063416
  H        -9.4368581650        9.1370325506       26.7876760697
  H       -10.4647041615        9.2842331874       25.4288764872
  H       -10.0132397035       10.7183122116       26.3897721631
  C        -4.1963364000       15.4682632143       38.6641503859
  N        -4.1210306838       16.8011171572       38.6209545498
  O        -3.1507943453       18.4786209705       37.3683415003
  S        -4.6416830994       14.6130914946       40.2160218644
  C        -4.2109943022       17.6347707435       39.8555906148
  H        -4.3793078178       18.7054783325       39.6596752346
  H        -5.0262196551       17.3547799187       40.4749443534
  C        -2.9312320077       17.5751841092       40.6394538044
  H        -2.9584913011       16.6184424746       41.1347976479
  H        -2.0987123983       17.6171780865       39.9869866854
  H        -2.9070304502       18.3970091499       41.3419461990
