352
i=
  H         3.6515998289        1.5084159308       12.3919414501
  C         3.0676420607        2.3895356808       12.3890644183
  H         3.6936751716        3.1983677355       12.6476758851
  C         2.5202816225        2.5828772444       11.0008397017
  C         2.0242942859        2.1520524718       13.4580662664
  C         3.6671324750        2.8390579584        9.9162958301
  H         1.9253702439        3.5323139259       11.0175849413
  H         2.0428532654        1.6235510171       10.7107532888
  H         2.4011746585        2.0199132190       14.4775267057
  H         1.3212190863        1.3739165965       13.1336140385
  H         1.3479745137        3.0586399460       13.5933984813
  C         4.6406890466        1.6570502552        9.7696628202
  H         3.1533215460        2.7601598647        8.9240736171
  H         4.1576400733        3.7846796781       10.0295137674
  C         5.4360174290        1.7885871844        8.4699554986
  H         4.1517050109        0.6724455973        9.6408860489
  H         5.3104009034        1.6981975929       10.5932663733
  C         6.6342543690        2.7836180775        8.6798785390
  H         4.8538023887        2.2531547165        7.6956380343
  H         5.6975230350        0.7744483925        8.1322775271
  C         7.8508750743        2.0659354927        9.2735319984
  H         6.9788032445        3.1115603991        7.7168524485
  H         6.4135256808        3.6715010321        9.2916950342
  C         9.1388128719        2.8452592281        9.4388423111
  H         8.0198898997        1.2136879334        8.6148435928
  H         7.5499904771        1.5101114743       10.1733007839
  C         8.7375861099        4.1719950503       10.0788209306
  C         9.5356691947        3.5632213348        8.1521961444
  C        10.2649669344        2.1078671814       10.1909466785
  C         9.0239221773        5.2247785417        9.2641539365
  C         8.2751622106        4.6431262983       11.2989057603
  C         9.5293690447        4.8722141994        8.0380584670
  C         9.9246791477        2.9094644111        6.9107031631
  H         9.8899365173        1.7997098867       11.1628497897
  H        10.6048804019        1.2038085909        9.6970808060
  C        11.4678934266        3.0582425533       10.4747740984
  S         8.6607829876        6.7864417968        9.9200023595
  C         8.1683581603        6.0036331392       11.4020762592
  H         8.0027115543        3.9499171391       12.1444358487
  C         9.8258252776        5.4960695989        6.8303017497
  H        10.1294896220        1.8394040929        6.9877806224
  C        10.2276548336        3.5247708607        5.7073522989
  H        11.1911997363        3.9612589146       11.1073367998
  H        11.8132812596        3.3956600983        9.4845140307
  C        12.6404092478        2.4077949127       11.2772488682
  C         7.6391164507        6.7307110686       12.6455654745
  C        10.2299578724        4.8657877570        5.6549748503
  H         9.8344499825        6.5420494669        6.8860932166
  C        10.7477298110        3.1316950170        4.5083040006
  H        13.5786667287        2.5807458908       10.8359926832
  H        12.5029245118        1.4183980762       11.4643238387
  C        12.7778471191        3.0503208139       12.6613288545
  C         7.5490247567        8.1411138929       12.7964667399
  C         7.2027310578        5.8797373381       13.7937216031
  C        10.6876955627        5.5136922484        4.4226308869
  C        10.9599866765        4.2147488849        3.6922313787
  S        11.0613300088        1.6235359698        3.7764205966
  H        13.7678767102        2.8413968277       12.9961617511
  H        12.8450773231        4.1237348631       12.6501630668
  C        11.7741739543        2.4298979804       13.5849984651
  N         7.7332391359        9.0914673669       11.8074057718
  C         7.4729785220        8.7177683595       14.0377204041
  C         6.8961645485        6.5160369345       14.9561244140
  H         7.2834858763        4.8114108021       13.7667008722
  C        11.9814570363        6.3547840135        4.6305606787
  C         9.4378741910        6.2152568939        3.8286239082
  C        11.3759606638        3.8529240503        2.4195777740
  C        11.4992579850        2.4875539984        2.3317529544
  H        11.8913337811        1.3580453094       13.4875199485
  H        10.7995627113        2.7043871642       13.2772779671
  C        11.9621445831        2.9769266519       14.9820386288
  S         7.9002403795       10.5693571275       12.4389192768
  N         7.6994672965       10.1214337849       13.9747137735
  C         7.0300178367        8.0040921940       15.1473296270
  H         6.6128135451        5.9060525250       15.8493247985
  H        11.8454947513        7.2782609739        5.2597010335
  H        12.3142668248        6.7510213114        3.6797120541
  C        13.0923769815        5.6140827979        5.2945229434
  H         8.8102287993        6.6450840249        4.5731185320
  H         9.8865903182        6.9812918324        3.1294270049
  C         8.4184567164        5.3206187420        3.0650468092
  H        11.5269857437        4.5987835592        1.6663170787
  C        11.8649780054        1.7409853496        1.0316985092
  H        12.0654354253        4.0873601288       15.0323497918
  H        10.9580625505        2.8510767187       15.5458279891
  C        13.0598429925        2.3025801261       15.8564519413
  C         6.7215377420        8.7560124727       16.3307134054
  H        12.8615802060        5.2216709061        6.2828004158
  H        13.4094003723        4.8033706466        4.6369152437
  C        14.3817946693        6.3941270370        5.3717936651
  H         7.9816706038        4.5782602200        3.7736923223
  H         8.8514420051        4.7966112102        2.1580318952
  C         7.2859597660        6.2012981621        2.5119084119
  C        11.9405565212        0.3143980684        0.8866990781
  C        12.0153093546        2.5868418931       -0.1918204340
  H        14.0061634194        2.5830620112       15.3499308878
  H        13.1692633928        1.1882114216       15.7245791808
  C        13.1196504184        2.8311662792       17.3371601205
  H         6.7976419871        9.8350574481       16.3284983394
  C         6.3472859682        8.3702038478       17.5487700580
  H        14.4167960707        7.0490639528        6.2303107599
  H        14.6040445561        7.1067697694        4.5856918039
  C        15.5420530318        5.4591878820        5.3426611956
  H         6.8775523169        6.7684354197        3.3272727788
  H         7.7275209063        6.9289704432        1.7853428048
  C         6.3209881673        5.2417127583        1.8356081709
  N        11.6287526430       -0.5629089657        1.9242022745
  C        12.2318307807       -0.3159736432       -0.3100391038
  C        12.3602564918        1.9650528862       -1.3758772854
  H        11.7682120172        3.6439242677       -0.1674700520
  H        13.1523054545        2.0795137872       18.2373758813
  H        12.2840389490        3.5118577017       17.4881442212
  H        14.0762683864        3.3572913578       17.5001007337
  S         6.1453472534        6.8180738845       18.2166921058
  C         6.1542801905        9.4209640369       18.6432180075
  H        15.3663415734        4.5853969456        5.9479368116
  H        15.9149088554        5.2129768772        4.2626714280
  C        16.7309144331        6.1350219439        6.0180234348
  H         6.2288804855        4.2601765159        2.3833364660
  H         6.6445835851        4.9528199461        0.8527495398
  C         4.8856206869        5.7515362629        1.6956761474
  S        11.9027687788       -2.0316386659        1.3281345051
  N        12.2541477753       -1.6873228482       -0.2259151869
  C        12.4815204084        0.4487735129       -1.4734270552
  H        12.5556339759        2.6567608743       -2.2067885881
  C         5.8846495731        7.5401551717       19.8048454994
  N         5.9366272717        8.8781621482       19.8287276409
  O         6.1652457679       10.6334548731       18.4661027637
  H        17.1443089452        6.9880087901        5.4525217027
  H        16.3898353865        6.5093707874        6.9620379173
  C        17.8664757408        5.2520812058        6.2725622037
  H         4.2303051346        4.9150562744        1.5293573483
  H         4.5202744537        6.1862620342        2.6476489518
  C         4.7799008217        6.7245625214        0.5398901182
  C        12.5303969731       -0.3896404413       -2.6340640409
  S         5.7519839427        6.5975031828       21.2449396006
  C         5.9767001681        9.6787682667       21.0835425416
  H        17.4688602183        4.3779599276        6.7517897503
  H        18.3476156069        5.0561212013        5.3598045565
  C        18.9134518986        5.8250782774        7.1885134033
  H         4.4011646375        6.0284548262       -0.2377916448
  H         5.7557454023        7.0574307509        0.3119581869
  C         3.6809251004        7.8181584854        0.7771083424
  H        11.9854543220       -1.3644900958       -2.6132549040
  C        13.1728219906       -0.1984577411       -3.8436091848
  H         5.4644587147        9.2913574365       21.9880296556
  H         5.4115209285       10.6437639200       20.8890520132
  C         7.5477574225       10.0433770245       21.5071920512
  H        18.8810469090        5.2621834087        8.0868104316
  H        18.5004348830        6.7363585350        7.6288241924
  C        20.2779075795        5.8395707563        6.6187411160
  H         3.1411709714        8.0239463347       -0.1275630603
  H         2.9709287370        7.3528650925        1.4589588455
  C         4.2959798101        9.0292478912        1.5032786251
  S        13.7948501973        1.3493485468       -4.3667880323
  C        13.1647902932       -1.2665767058       -4.8635047803
  H         7.8177559191        9.2799188338       22.2237669356
  H         7.5700863312       11.0101197378       22.0348030145
  H         8.2298201349       10.0173822137       20.6286135995
  H        20.1918392884        6.4316152762        5.7281054108
  H        21.0159485210        6.2543146456        7.2670925469
  H        20.5439960244        4.7982829996        6.4667605141
  H         3.5131559953        9.4532103655        2.2033525523
  H         5.2052977362        8.6970410833        2.0741219605
  H         4.5032670869        9.8702336507        0.8565534608
  C        14.0507163082        0.5403425517       -5.8588102712
  N        13.7999679481       -0.7609610877       -5.9563868984
  O        12.8277649891       -2.4021927442       -4.7220233248
  S        14.7147605621        1.3050844071       -7.2757242985
  C        14.0654684874       -1.5610816362       -7.1248884061
  H        14.3658482447       -2.5985084188       -6.8399240407
  H        14.9301362327       -1.2208025400       -7.6831286380
  C        12.7902351361       -1.7423269487       -7.9183127382
  H        12.0214922676       -1.1156344264       -7.5245217574
  H        12.4228436047       -2.7452759126       -7.6942098383
  H        12.8915610833       -1.6695261092       -8.9692695848
  H        -3.6661950596       14.8029716484       16.4539295762
  C        -3.2524258027       13.7845482943       16.2424872942
  H        -4.0805899441       13.1785776275       16.4922285956
  C        -2.2418354952       13.6074349496       17.3112842119
  C        -2.7695412820       13.5575198100       14.7864198889
  C        -2.7889997269       13.5842729161       18.7008297627
  H        -1.5955652784       12.7118633698       17.1403651995
  H        -1.5153623239       14.3648380266       17.3639079177
  H        -1.9050416569       14.2714684305       14.7096093595
  H        -2.3112952368       12.6048214028       14.6171756211
  H        -3.4391047301       13.8569647800       13.9683198296
  C        -1.7980123295       13.4954934439       19.8381115213
  H        -3.5284447377       12.7303951120       18.7012439201
  H        -3.4161250000       14.4332797461       18.9359268578
  C        -2.3594639236       13.6428163705       21.2894844618
  H        -1.3159604140       12.5033708276       19.5832968183
  H        -1.0272645668       14.1650659487       19.6509573535
  C        -1.3810459218       13.0093113019       22.2335566643
  H        -3.2665135232       13.0017636620       21.4126236258
  H        -2.6756353087       14.6818108678       21.5713670367
  C        -0.1115233658       13.9009445858       22.5850972777
  H        -1.9769388877       12.8413154737       23.1571804098
  H        -1.0677350176       12.0817840167       21.7442129969
  C         1.0900624472       13.2866309847       23.3151851825
  H         0.3450270598       14.2710512534       21.6562072389
  H        -0.4084553496       14.7397745572       23.2274774903
  C         1.4741384670       11.9789642383       22.6353099472
  C         0.6029219784       12.5272077705       24.4823362115
  C         2.3107678376       14.2871855350       23.5436224781
  C         1.1877644727       10.8505762397       23.3686798305
  C         2.1316560743       11.6146276776       21.4289111650
  C         0.6045242620       11.1599850100       24.5849541993
  C         0.1048914106       13.1351237093       25.6379395034
  H         2.4287880600       14.7415625263       22.5448642737
  H         2.0324017167       15.1248210593       24.1821002796
  C         3.6115320449       13.6315748452       24.1186830069
  S         1.6988904969        9.3405965672       22.7347328695
  C         2.1654992499       10.2652176406       21.2217720807
  H         2.5567415004       12.3698295456       20.7447819601
  C         0.2072965523       10.4584475655       25.6938917842
  H        -0.0492048110       14.2292005119       25.5972880580
  C        -0.2691939301       12.4690690371       26.7935544180
  H         4.0516777711       13.0930141932       23.2392264510
  H         3.5144519011       12.8865470859       24.9509709719
  C         4.6725780777       14.6385991565       24.5058667298
  C         2.5860588615        9.5074121496       19.9496454746
  C        -0.2588860837       11.0860114519       26.8768112296
  H         0.2543911374        9.3858750592       25.8156138220
  C        -0.6472534071       12.8201283403       28.0310907855
  H         5.4073621010       14.2052833806       25.1703306097
  H         4.0903143143       15.3781499697       24.9875081639
  C         5.4792960399       15.3380722609       23.3253579829
  C         2.5983605432        8.1138057862       19.7639522395
  C         3.0215417239       10.3164973133       18.7732237199
  C        -0.6779724248       10.4119505135       28.1400719415
  C        -0.8255214943       11.7532084853       28.8691777304
  S        -0.9454437978       14.3451379574       28.8182728130
  H         6.1776667760       16.0386491598       23.7824583158
  H         4.7566723176       15.8668856852       22.6940116085
  C         6.2900048887       14.3470528548       22.5521226358
  N         2.3267398126        7.1198052142       20.6983271663
  C         2.9316670884        7.5185081176       18.5533817621
  C         3.1510934996        9.7477696144       17.5120251931
  H         3.0313725264       11.4010233722       18.9355533200
  C         0.4481993817        9.6488847969       28.8383020210
  C        -1.9155389470        9.5754469243       28.1531927490
  C        -1.1901410439       12.1781038529       30.1266264809
  C        -1.2162081685       13.5208723218       30.2526979942
  H         7.3392194528       14.6230883723       22.6877043558
  H         6.2722426487       13.3486640530       22.9563506907
  C         5.8875775454       14.0950933866       21.0462139507
  S         2.4716360308        5.6736237068       19.9711442073
  N         2.8372399062        6.1318242887       18.4724621967
  C         3.1003029404        8.2600746481       17.3287500536
  H         3.2694041846       10.3242564626       16.5875826555
  H         0.8235944546        8.8924613932       28.2034738330
  H        -0.0483170789        9.1262376388       29.6332638873
  C         1.7597431993       10.4302095447       29.2315209468
  H        -1.6023136165        8.5943012389       27.7664110560
  H        -2.1835288143        9.5073033461       29.1855850550
  C        -3.0588212040       10.0984962479       27.2588959589
  H        -1.3877051691       11.4722408711       30.8846705835
  C        -1.6487033238       14.2559426617       31.5097632354
  H         5.4962237799       15.0995998166       20.7834199107
  H         5.1141432940       13.3860984507       21.0265847984
  C         7.0735643079       13.6878771131       20.1184212749
  C         3.2981964137        7.5007663985       16.1368532129
  H         2.2158016639       10.7740055534       28.3296665640
  H         1.6575002591       11.2836541445       29.8311968712
  C         2.8217612993        9.4874259786       29.8384775622
  H        -2.8714144976       10.0093822873       26.2553614321
  H        -3.1052239858       11.1413423378       27.4877419560
  C        -4.4951150276        9.4471672369       27.5797725135
  C        -1.5028938688       15.6958590191       31.7522783049
  C        -2.0631861572       13.4122302367       32.6497311045
  H         7.8377893665       14.2798280538       20.4414617512
  H         7.3828728410       12.6219558778       20.2177148970
  C         6.7815470177       14.0723064082       18.6353072600
  H         3.3766431458        6.4443407480       16.0942051549
  C         3.6612814994        7.7804208476       14.8913736614
  H         3.1307791814        8.7098156909       29.0959303858
  H         2.4432016496        8.7843104307       30.5956802689
  C         4.0572208062       10.3059654906       30.4579045694
  H        -4.5724090677        8.5262627913       26.9333768913
  H        -4.5036682225        9.0176553631       28.5672489017
  C        -5.6584303497       10.2977899009       27.2897003557
  N        -1.3016376013       16.6206413216       30.7633311788
  C        -1.8552965474       16.2837303829       32.9523433535
  C        -2.1675178234       14.0053523771       33.9164572028
  H        -2.1429506363       12.3695482910       32.4489662251
  H         7.4326473861       13.7097446056       17.9067024598
  H         5.7553181219       13.8651087068       18.3515867843
  H         6.7453852450       15.1784125993       18.6573531054
  S         3.9307165570        9.3981716519       14.3559332007
  C         3.8343062392        6.6897963417       13.8747297830
  H         4.3004416196       11.0980616205       29.7723787532
  H         3.7606641091       10.7662023454       31.4141421228
  C         5.3015444261        9.4318283438       30.5052547466
  H        -5.4809559192       11.2331106075       27.8135024545
  H        -6.6155546397        9.9712549060       27.6692442315
  C        -5.8310328963       10.6151062349       25.7488338864
  S        -1.2905568628       18.0879698988       31.4741968552
  N        -1.9592795881       17.6502020337       32.8725934569
  C        -2.3436110786       15.5003056869       34.0600367404
  H        -2.4255264749       13.3155798847       34.6667161128
  C         4.0934414394        8.7189199557       12.7646721423
  N         4.0455966929        7.3347124162       12.7340952909
  O         3.7853692772        5.4623419468       14.0626909239
  H         6.1962811230       10.0869414407       30.6306154277
  H         5.4900202686        8.9906792959       29.5443839072
  C         5.3895311909        8.2819360443       31.4149445082
  H        -5.1733526611       11.3642207594       25.3879859346
  H        -5.5625856387        9.7049795962       25.1990561228
  C        -7.3062474237       10.9929238448       25.5392927560
  C        -2.7695270373       16.2113343239       35.2191483022
  S         4.5008510288        9.5459392737       11.2705101309
  C         4.2518369774        6.6015324974       11.5065936873
  H         5.9590370633        8.6946148352       32.2982753694
  H         4.3857449072        8.0477754465       31.7111999432
  C         6.1673150063        7.0969956899       30.8623351571
  H        -7.3735329157       11.4644004999       24.5627618969
  H        -7.5564295712       11.7776571759       26.2518000050
  C        -8.2939469782        9.7484338021       25.5290332042
  H        -3.0253608293       17.2362103734       35.0190556705
  C        -3.1040444111       15.7690468245       36.4601194087
  H         4.9445201272        7.0958584123       10.8387414624
  H         4.7011254084        5.7237870508       11.7447868031
  C         2.8569748493        6.3764177270       10.8780177146
  H         7.1350937618        7.4421636528       30.4616097787
  H         5.6403031935        6.7086147951       30.0132662650
  C         6.4189401883        6.0970945217       31.9309236978
  H        -8.2530861741        9.2272487581       24.5511711052
  H        -8.0730981685        9.1124804812       26.3668518880
  C        -9.7453351473       10.1959471922       25.5731824588
  S        -3.4818511895       14.1775585757       36.8350295571
  C        -3.3038259347       16.8032995762       37.5283343830
  H         2.0328746174        5.9628368654       11.5951391995
  H         2.4925584178        7.2640448910       10.3694384638
  H         3.0072331886        5.7064231453        9.9572590813
  H         6.9439781746        5.1842940729       31.4457616184
  H         5.4524359195        5.7661664421       32.3239825767
  H         6.8465855839        6.4845762928       32.8221291564
  H       -10.0680311043       10.4643164281       24.5808624910
  H        -9.8906218122       10.8582476478       26.3563901430
  H       -10.2726791825        9.3752223045       26.0008145714
  C        -3.9044465307       14.8431355006       38.4449781728
  N        -3.9099266398       16.1797158193       38.5380806282
  O        -3.1137434359       18.0203663954       37.3271582071
  S        -4.4953064081       13.8769274286       39.8893233426
  C        -4.1830988231       16.9334568156       39.7314488782
  H        -4.5168276998       17.9403253637       39.4824790329
  H        -5.0397676285       16.5618313198       40.3941831731
  C        -2.9319757933       17.1697049313       40.5095116487
  H        -3.0117760509       16.6203802021       41.4371753443
  H        -2.0726900519       16.7672342245       40.0729711454
  H        -2.7754226308       18.2429650940       40.6759956319
