352
i=
  H         4.4035269731        2.1384170750       12.3205900242
  C         3.7280104635        3.0029774382       12.4783967514
  H         4.3238209020        3.9174293937       12.6532444338
  C         2.8823996381        3.1466046642       11.1911817685
  C         2.9288297513        2.7669720662       13.7099707989
  C         3.6102610759        3.3864381808        9.8855245875
  H         2.2622286697        3.9839234806       11.4117897096
  H         2.2154533400        2.2954734193       11.0726625332
  H         2.3770309846        1.7843064567       13.6999932956
  H         2.1708523377        3.5002749191       13.9166318696
  H         3.6653022348        2.7192119574       14.5713674174
  C         4.3928863861        2.1025998810        9.2546438838
  H         2.8782804470        3.8775979404        9.2364367451
  H         4.3214217752        4.2291517226       10.0183322498
  C         5.3848185605        2.3953399590        8.0476001846
  H         3.6634433116        1.4237486298        8.8344523102
  H         4.9603498626        1.5673433910       10.0143939139
  C         6.6446880514        3.2269592339        8.3738764263
  H         4.9337126690        2.6878914118        7.0949156267
  H         5.8048777397        1.3836954915        7.9076488909
  C         7.8524410104        2.3108080414        8.5459460324
  H         6.9334422981        3.9626626328        7.6342940807
  H         6.2861186250        3.6870190364        9.2722422882
  C         9.0732728390        3.2019868844        8.8496586597
  H         7.9986597473        1.7729607853        7.5970821225
  H         7.7330511380        1.5870026800        9.3819890567
  C         8.6941909849        4.5017594031        9.6005874726
  C         9.6461205502        3.9554181148        7.6829186097
  C        10.2933214566        2.4536994905        9.5437419084
  C         8.9296666607        5.6395500721        8.8588356226
  C         8.1574954739        4.7827093696       10.8608583815
  C         9.5447466853        5.3147644463        7.6369611006
  C        10.2925828057        3.4004324909        6.5882287328
  H         9.8576745158        2.0280971915       10.4366319483
  H        10.7598619814        1.6940907827        8.9639856658
  C        11.4945994635        3.4030369887        9.6409551256
  S         8.6830879901        7.0508202271        9.8042580736
  C         8.0488854916        6.1011248303       11.0961803639
  H         7.8466250454        3.9411181719       11.4775531881
  C        10.1046240190        5.9746755479        6.5632619893
  H        10.3459415589        2.3197987420        6.6394577131
  C        10.7359515428        4.0728117671        5.5212602891
  H        11.1512278764        4.4042259665        9.9323242995
  H        12.0742203559        3.2599841413        8.7201166627
  C        12.3063061014        3.0074845518       10.8982803514
  C         7.6759233303        6.7981316029       12.3627796119
  C        10.7154117046        5.3943406484        5.4425422114
  H         9.9799434098        7.0528990439        6.6185949782
  C        11.1768359923        3.7056082294        4.2538837597
  H        13.0616744174        3.7637788428       10.9612184236
  H        12.8797791482        2.0976421471       10.7372326859
  C        11.4969478840        2.9432686203       12.2353214210
  C         7.8807802047        8.1533707190       12.6981858844
  C         7.2271079861        5.9634720416       13.5377174446
  C        11.1696169622        6.1938667495        4.2892145256
  C        11.4691800867        4.8149311739        3.4719941504
  S        11.4602338570        2.2279367525        3.4927693765
  H        10.6017688006        3.5365366725       12.0472585875
  H        11.3651773476        1.8961976591       12.4682498801
  C        12.3249096443        3.5328034850       13.4677485247
  N         8.3131079460        9.1378757865       11.7774549484
  C         7.6699963213        8.6317932801       13.9789039378
  C         6.9789785847        6.4099243347       14.7614650073
  H         7.1271578426        4.9031567334       13.5031520235
  C        12.4997864514        6.9907126805        4.5241689828
  C        10.0042862077        7.0468600647        3.6271275115
  C        11.9524563890        4.4599640123        2.2250422296
  C        11.8912895097        3.1029865681        2.0340560080
  H        11.6472669316        4.0813712189       14.1372777989
  H        12.9068408145        4.3255949978       13.0570064351
  C        13.2930852549        2.6816955132       14.3003832110
  S         8.2838071513       10.5592671493       12.5956786269
  N         7.8838766769        9.9888687933       14.0762296173
  C         7.1961957913        7.8326013000       15.0846784628
  H         6.5833362330        5.7363319743       15.5145064699
  H        12.4341613293        7.6610374461        5.3587786322
  H        12.8124426234        7.5753552755        3.6930528668
  C        13.6958572883        6.0169905163        4.7058981917
  H         9.6318117994        7.7715467126        4.3558485219
  H        10.4275861173        7.7231124425        2.9087143115
  C         8.8514013686        6.3422660420        2.8658775307
  H        12.0892541315        5.1748509869        1.4805915830
  C        12.1206713179        2.3623162018        0.7346458702
  H        13.5732440566        1.8285769260       13.6425020615
  H        14.1208591124        3.2638353257       14.6342988130
  C        12.7379692639        2.1700321177       15.6502998404
  C         6.9274106046        8.4805139186       16.3304317978
  H        13.4474037496        5.4117551398        5.5413894729
  H        13.9319565613        5.4470856658        3.7615291913
  C        14.9155477901        6.8805825450        5.0620601741
  H         8.3710691216        5.6123464489        3.5400632783
  H         9.3766954593        5.7823516476        2.0879979613
  C         7.7185237766        7.1128771530        2.2032386162
  C        12.0987960797        0.9913133892        0.5793634641
  C        12.5218821584        3.2095154161       -0.4404326049
  H        13.2321590359        1.2240878061       15.8578003751
  H        11.6106197006        1.9798217475       15.5991219533
  C        13.1622781336        3.0731936313       16.7811131038
  H         7.0586152883        9.5679373961       16.3611636085
  C         6.5170156764        8.0932865969       17.5995086837
  H        14.6479955631        7.6942045332        5.7840454904
  H        15.2817044116        7.2887087771        4.0810266367
  C        15.9209409073        5.9829066281        5.6861311453
  H         7.2640691660        7.7697837874        2.9832764086
  H         8.2143059745        7.8362804500        1.4564527044
  C         6.6678375356        6.1776295102        1.5973605176
  N        11.7918342303       -0.0135453405        1.5480815734
  C        12.3330958756        0.3764420631       -0.6642250806
  C        12.7048073981        2.5880845013       -1.6673777797
  H        12.6970651549        4.2442731160       -0.2172883156
  H        14.2081352633        2.9816046165       16.9132972641
  H        12.6796017073        2.8428976698       17.7162622672
  H        13.0185999772        4.1228931740       16.5530536073
  S         6.0667166357        6.5356949178       18.0435965457
  C         6.4800773498        9.1883895067       18.6412058136
  H        15.4063350306        5.3258790245        6.3709704805
  H        16.3492266057        5.3452786251        4.8623346750
  C        17.0169208429        6.7393287751        6.3842975062
  H         6.1191107588        5.6318851348        2.3716047572
  H         6.9918654586        5.3568186970        0.9528241253
  C         5.6195808558        6.9315151214        0.8028000850
  S        11.8167701808       -1.4930240270        0.8935112800
  N        12.2605551548       -1.0106037415       -0.6037736218
  C        12.6571515446        1.1009777747       -1.8270697600
  H        12.9843883152        3.2594494470       -2.5085829822
  C         5.9436052390        7.2650457213       19.6682542345
  N         6.1206014962        8.6026307997       19.8107370218
  O         6.9119152878       10.3676427882       18.5202870835
  H        17.5754251950        7.4784630991        5.7785085888
  H        16.6055721151        7.3316259763        7.1902569906
  C        18.0532395810        5.7333615833        6.9728402624
  H         6.0187957698        7.4287736062       -0.0597745599
  H         4.8926083322        6.2572880409        0.3069073956
  C         4.6937777842        7.7880742497        1.6859692462
  C        12.8752559226        0.4611565955       -3.0859966015
  S         6.0151500025        6.3460760597       21.2235282534
  C         6.0962389169        9.2692305985       21.1209847695
  H        17.6169328332        5.0912550667        7.8146546573
  H        18.3858364943        5.1053470014        6.2116164613
  C        19.4410756245        6.2820055117        7.4328940064
  H         5.1872428012        8.1755319346        2.5910129351
  H         3.8429879802        7.2462102938        2.0743643543
  C         4.2629329074        9.0237840336        0.9609618997
  H        12.4743549206       -0.4851818691       -3.1473202585
  C        13.4036928551        0.8031679612       -4.3334880076
  H         5.4528338335        8.7731455889       21.7991831715
  H         5.6968504938       10.2737510128       21.0566095025
  C         7.5070253405        9.5305982301       21.6856682798
  H        19.7451789618        5.5507892458        8.2047900590
  H        19.2571838977        7.1924348389        8.0151177789
  C        20.5133871938        6.3064312813        6.3645134449
  H         3.9811530605        8.8462841729       -0.0377234770
  H         3.4885693418        9.5164346312        1.4814362986
  C         5.4468949737        9.9791683987        1.0247266827
  S        14.0629530169        2.3341600810       -4.8083561545
  C        13.3674739402       -0.2125605526       -5.4016458377
  H         8.2610539541        9.0849863179       21.0097505137
  H         7.5458915355        9.0228449350       22.6535530250
  H         7.7496239245       10.6068168242       21.7111726292
  H        20.1066590769        5.8072531817        5.4814331536
  H        20.7838337521        7.3332958335        6.0097148617
  H        21.4282594409        5.8027739970        6.6181584869
  H         6.3001465029        9.6610199241        0.3836761318
  H         5.1723690403       10.9708186002        0.6606103889
  H         5.8178262535       10.1012436901        2.0690316344
  C        14.2225033846        1.6844598485       -6.4572608866
  N        13.9257224656        0.3509356818       -6.5136957822
  O        13.0226407880       -1.4005437550       -5.2645794685
  S        14.6835283889        2.5087256330       -7.9194494145
  C        14.0061737916       -0.5458863241       -7.7168053518
  H        13.9431014969       -1.6125126956       -7.3931304588
  H        14.8836820209       -0.5223412474       -8.3343382094
  C        12.6965559754       -0.4013675512       -8.6499175068
  H        13.1166061843       -0.0012216690       -9.5609461800
  H        12.0368201186        0.3990567141       -8.3251628106
  H        12.1499992887       -1.3176177438       -8.8831423335
  H        -3.3190725538       15.0733470954       15.9313148266
  C        -3.1563051237       13.9907711643       16.0132352523
  H        -4.0863826819       13.6994128300       16.5272483629
  C        -2.0113599747       13.7434226908       17.0071971749
  C        -2.8801830434       13.3580680652       14.6643360728
  C        -2.5233609386       13.7832522345       18.4395279873
  H        -1.6284651276       12.7529961940       16.7690654480
  H        -1.1018949590       14.4392685467       16.8800865135
  H        -1.9725254512       12.8321661815       14.7329667288
  H        -3.6945591996       12.7018410388       14.1997130837
  H        -2.6527150589       14.2153795828       14.0136551331
  C        -1.4107494820       13.5919071741       19.4782394610
  H        -3.3348016793       13.0188531719       18.6603414313
  H        -2.9322695340       14.8164183839       18.6461614631
  C        -1.9509595338       13.6656001628       20.9010857181
  H        -0.9860965113       12.6227867685       19.4142712330
  H        -0.6746272272       14.3565981934       19.2280652313
  C        -0.9872115991       13.1644637059       22.0419355257
  H        -2.8111582749       13.0250794292       20.9010569096
  H        -2.2823307066       14.7031340057       21.0535424369
  C         0.2183194325       14.1686582210       22.2750599839
  H        -1.5587443929       12.9421563505       22.9443584070
  H        -0.6442884599       12.2226691353       21.6249746910
  C         1.3263064556       13.4482745761       23.1075568836
  H         0.7657236187       14.5524726328       21.3415012683
  H        -0.1067807793       15.0669604413       22.7609261763
  C         1.7880119718       12.0888861461       22.4791995377
  C         0.7910370362       12.6901005041       24.2660561852
  C         2.6431772216       14.2577199488       23.2317931634
  C         1.4654474263       10.9659644149       23.2115842690
  C         2.4718135709       11.6488022724       21.3816927105
  C         0.8486478246       11.3400311058       24.3631551677
  C         0.3471534098       13.3124811252       25.4332589709
  H         2.7697136408       14.7544925923       22.3600095664
  H         2.4865322391       15.0682107312       23.9839877462
  C         3.9394730366       13.4822088056       23.7106169001
  S         1.7351483389        9.4175741545       22.5703905885
  C         2.4498000389       10.2467845541       21.2303850992
  H         2.9435866949       12.3848137430       20.7491534722
  C         0.3074076669       10.7114934441       25.4742241914
  H         0.3519884090       14.3638116213       25.4203358010
  C        -0.0027493338       12.6805165995       26.6062300532
  H         4.2920851017       12.6471624415       23.0978431565
  H         3.6202698783       12.9912399439       24.6042911036
  C         5.0765115907       14.3882024261       23.7560748094
  C         2.7635797050        9.5825892716       19.9002302225
  C        -0.0337151221       11.3231565903       26.6933815145
  H         0.2156934326        9.6208174116       25.5144264718
  C        -0.4893044149       13.0486785088       27.8456378999
  H         5.9160828478       14.0503005298       24.2925583725
  H         4.8220498167       15.2358738535       24.4022044484
  C         5.5321260151       14.8953119279       22.3460226457
  C         2.6719593790        8.2078128025       19.5957771453
  C         3.2770039873       10.4501029156       18.7597113784
  C        -0.4647875390       10.5657439239       27.9213480358
  C        -0.8315002996       11.8943655514       28.6286739399
  S        -0.8968361532       14.5119001812       28.4854998147
  H         5.9683564750       15.8529004904       22.3035184697
  H         4.7420369626       15.0110666654       21.6628929900
  C         6.4094521067       13.8143227956       21.6999584069
  N         2.2326977022        7.2442554475       20.4894821310
  C         2.9244283855        7.7224633531       18.3709093878
  C         3.5404170463        9.9567691119       17.4845042955
  H         3.4793008451       11.4549923799       18.9117483219
  C         0.6441068534        9.6998379881       28.5954969045
  C        -1.6809644056        9.7685714876       27.5331995819
  C        -1.3525379731       12.2797341267       29.8049724605
  C        -1.3575727511       13.6896995686       29.9199929975
  H         7.4707137448       13.9564228786       21.7577281454
  H         6.1850580276       12.8958761437       22.1291776712
  C         6.0602904480       13.6372865687       20.2445901677
  S         2.3260747016        5.8191265117       19.8119876026
  N         2.7130810408        6.3026871361       18.3453233255
  C         3.3385471949        8.4468903655       17.2131344913
  H         4.0180137022       10.5456598945       16.7153756523
  H         0.9118758243        8.9158805857       27.9196044823
  H         0.4253787240        9.2611833638       29.5582891491
  C         1.9785101824       10.4845795959       28.8936599999
  H        -1.4979922537        9.0379252294       26.8311021203
  H        -1.8806550724        9.1057867546       28.4221408990
  C        -2.9344387834       10.5060583822       27.1633873995
  H        -1.7003442471       11.5849939125       30.5300499124
  C        -1.7356750442       14.4310684648       31.1984702828
  H         5.6358845142       14.5931067607       19.9203481306
  H         5.4164371205       12.7025280532       20.1531130848
  C         7.3545912133       13.4395004212       19.4508071363
  C         3.5748559765        7.8106910499       15.9316871150
  H         2.3423783534       10.8706897892       27.8882034588
  H         1.7530915756       11.3936620659       29.4740160568
  C         3.0829165836        9.4913138034       29.2677012889
  H        -2.7283560669       11.2051924606       26.3488709685
  H        -3.2051811344       11.1578096101       27.9785885664
  C        -4.1809936450        9.6910975122       26.8755929845
  C        -1.7686797682       15.8178639048       31.3780759433
  C        -1.8786031535       13.6537892681       32.4557487802
  H         8.0208898683       14.2105836411       19.7718844548
  H         7.9148805648       12.5014060305       19.6677683716
  C         7.0001717626       13.6011816817       18.0263663872
  H         3.4909847425        6.7146470135       16.0004565453
  C         3.8527693592        8.2569549327       14.7183023378
  H         3.2052338111        8.6092732099       28.5902516924
  H         2.7040299635        9.0112423773       30.1651442585
  C         4.4685173062       10.0897297974       29.6265026150
  H        -4.0157010740        9.3182165888       25.8259934029
  H        -4.3419262073        8.9004563625       27.5431161758
  C        -5.4004760656       10.5753093525       26.9202717932
  N        -1.4706030560       16.7219476138       30.4087770349
  C        -2.1249651910       16.3789186505       32.5610679298
  C        -2.1851005294       14.2776332119       33.6445517561
  H        -1.6299309118       12.5920453111       32.4318247564
  H         7.1454546991       14.6642671170       17.7293571650
  H         7.6873206709       13.0864113271       17.3238964408
  H         5.9847378348       13.2974470850       17.8083745635
  S         4.1043997502        9.8402450605       14.3094345451
  C         4.0841949224        7.2953700950       13.6419991302
  H         4.5620864244       11.0097368819       29.0675420702
  H         4.4499193809       10.3041636026       30.6796792324
  C         5.6808694180        9.1667795053       29.2420883563
  H        -5.1762747581       11.2687311051       26.1393357312
  H        -5.5541449517       11.1709270819       27.8072606403
  C        -6.6251905461        9.7769130589       26.4831901382
  S        -1.7263553671       18.1843658747       31.0452223360
  N        -2.1906785991       17.7217180293       32.5101839392
  C        -2.3614025742       15.7279170172       33.7363011272
  H        -2.1322387589       13.7579530237       34.6047897701
  C         4.5112336971        9.2491355054       12.6741391021
  N         4.4104537023        7.9225137034       12.5024159147
  O         4.0241604440        6.0897546580       13.7945615773
  H         6.4524661959        9.8541573344       28.9578295357
  H         5.5185708515        8.7107585952       28.3047034875
  C         6.2015402952        8.1918449461       30.3090156019
  H        -6.3720307436        8.9316224522       25.9123830348
  H        -7.1755795181        9.6113536514       27.3847714605
  C        -7.5504271601       10.7077569087       25.5560137886
  C        -2.8612852238       16.4155539281       34.9002326829
  S         4.8747077755       10.1559181351       11.2520768174
  C         4.3420035384        7.2339352905       11.2389578841
  H         7.2430236630        8.0330104789       29.9637427738
  H         6.0382434461        8.7078895487       31.2845064950
  C         5.4821834301        6.8545826771       30.3025076261
  H        -6.9417912960       11.0661753594       24.7322912203
  H        -7.8811753810       11.6235348609       26.0626419810
  C        -8.7956092998       10.0610692537       24.9747174045
  H        -2.7698395010       17.5408489229       34.9417883894
  C        -3.5144295331       15.9580011752       36.0189522871
  H         5.1047373350        7.6218914824       10.5103113553
  H         4.7070177983        6.2495165799       11.4911267300
  C         2.9002821899        7.2475380640       10.7043921059
  H         5.4327341859        6.5572329788       29.2376785715
  H         4.4400408136        6.9178143734       30.5845334212
  C         6.1352868947        5.6697180979       31.0043403812
  H        -9.2122484200       10.5755577576       24.0791014404
  H        -8.5171477199        9.1185158798       24.5674827317
  C        -9.9774087893       10.1347210473       26.0053460694
  S        -4.1372669856       14.4096698669       36.3104754442
  C        -3.6657243881       16.9148376460       37.1138292001
  H         2.8740849270        7.0431657499        9.6085753881
  H         2.2492142735        6.5276124140       11.2447300524
  H         2.5647347592        8.2797086353       10.9696990520
  H         6.7392557410        6.0683107954       31.8692988448
  H         6.7953771491        5.1109907631       30.3100823677
  H         5.4300421183        4.9170214198       31.3335548279
  H        -9.8179908091        9.4442059771       26.8925782458
  H       -10.8361240101        9.8641990823       25.3642935826
  H       -10.1943324571       11.1794930755       26.2538297667
  C        -4.5329452167       14.9843776862       37.9223942692
  N        -4.2401506858       16.2879292033       38.1747096279
  O        -3.4292357299       18.1629030697       37.0387109169
  S        -5.2193349388       13.9797087566       39.1627995348
  C        -4.3699801259       16.8318622216       39.4949879655
  H        -4.3397594461       17.8784660437       39.4813914096
  H        -5.3239727288       16.4074895687       39.8478340638
  C        -3.2379933890       16.4298546890       40.4230255615
  H        -2.3318758524       17.0360902648       40.3773616762
  H        -3.5540591108       16.4586511721       41.4827164535
  H        -2.9332558529       15.4234356108       40.1734823242
