352
i=
  H         3.3523103104        2.1199751206       14.1561665948
  C         3.8397463872        1.8416438763       13.2192191176
  H         3.6941054372        0.7695478831       13.1521738559
  C         3.2067771015        2.4381835756       11.9426756788
  C         5.2626659224        2.3163786677       13.3812083077
  C         4.0325718942        2.5166903084       10.7217266737
  H         2.9821049858        3.4611987496       12.2904922032
  H         2.2156770505        1.9741609864       11.6765741431
  H         5.9738774783        1.7536762368       12.7112582128
  H         5.5405558140        2.1837604293       14.3772568038
  H         5.3693755698        3.4033226968       13.2554387983
  C         4.6236334058        1.1492923417       10.1976727300
  H         3.4799773673        3.0496807631        9.9733355017
  H         4.8200159623        3.1749793572       10.9360327386
  C         5.4335930157        1.2852518396        8.9225812672
  H         3.7607977370        0.4797546045       10.1761049811
  H         5.2992447126        0.8841191174       11.0690239876
  C         6.5729909976        2.2416702344        8.9443999781
  H         4.9072827160        1.7553780730        8.1268630051
  H         5.7088875712        0.3272860688        8.5766640700
  C         7.8851250083        1.4969908219        9.3124887981
  H         6.7581034198        2.7346982784        7.9880659986
  H         6.3737046230        3.0048180263        9.7074940409
  C         9.1145393965        2.4067252808        9.4377254589
  H         8.0266130584        0.7029710981        8.5987959764
  H         7.5821931572        1.0085070472       10.2347956781
  C         8.7930071022        3.7896381730       10.0881277852
  C         9.5795133020        3.0677404532        8.1741131361
  C        10.2287556969        1.6412742773       10.2802619640
  C         9.0357904365        4.8465976511        9.2426932641
  C         8.4347260237        4.1926572297       11.3320741635
  C         9.4910970246        4.4252192666        8.0477699099
  C        10.0238164429        2.4133647958        7.0337734992
  H         9.8517815124        1.5031936434       11.2665322054
  H        10.4682595584        0.6900793070        9.8065660352
  C        11.5402463712        2.4183348629       10.4525416933
  S         8.6913423604        6.3937022958       10.0065329546
  C         8.2653252319        5.5627179373       11.5071357032
  H         8.3761212825        3.4595849770       12.1225278360
  C         9.9935340210        5.0071386672        6.9345230262
  H         9.9612939800        1.2844144090        7.1172752282
  C        10.4591514567        3.0365982121        5.8932092271
  H        11.4129157895        3.5232884501       10.5435307894
  H        12.1608387034        2.4327682162        9.5704118689
  C        12.4315161084        1.9963900142       11.6689041169
  C         7.7622811416        6.2734839138       12.7850342142
  C        10.5384703278        4.3482367224        5.8277023681
  H         9.8790919243        6.0464178210        6.8473977785
  C        10.8985612332        2.5800992682        4.6759188255
  H        13.4192244844        2.4745323126       11.4067621528
  H        12.6075678804        0.9623357614       11.6162381589
  C        11.6972139659        2.4242764051       13.0202625836
  C         7.7606102588        7.6661851136       12.9345454088
  C         7.5710993554        5.4303228925       13.9676579232
  C        11.0175990159        5.0482314382        4.5543774558
  C        11.2115895227        3.7065294964        3.8746314943
  S        11.1714067328        1.0874758530        3.9510128276
  H        11.9288318898        3.4070220142       13.2937933311
  H        10.5999383741        2.4263222595       13.0081596240
  C        12.1486164259        1.5057680325       14.1870788640
  N         8.0250755018        8.5877141777       11.9335290535
  C         7.4910961750        8.2720555596       14.1272263889
  C         7.1847702355        6.0370638726       15.1837659498
  H         7.6295855885        4.3899497455       13.8590812903
  C        12.4108625420        5.7362638388        4.9345125614
  C         9.9363369009        5.8540322455        3.7575175142
  C        11.6762801393        3.2215317106        2.6440875547
  C        11.5962012678        1.8293061933        2.5127119374
  H        13.1444791557        1.2000107778       13.9358318508
  H        11.5703488498        0.6212701232       14.1625206024
  C        12.2254315696        2.1785337573       15.5427151507
  S         7.8718625329       10.0507146178       12.5730516157
  N         7.5446506484        9.6893326401       14.0739025894
  C         7.2370878947        7.5383493581       15.3373369219
  H         7.1370080839        5.4016896475       15.9739198144
  H        12.0807266392        6.5472404168        5.6028953071
  H        12.9713201455        6.0961398427        4.0971359074
  C        13.4317906911        4.9075915665        5.7297142587
  H         9.5459571549        6.6400251307        4.3601412129
  H        10.4448218557        6.3532302751        2.9265496212
  C         8.7834538978        5.0073532920        3.3270083310
  H        11.9843421877        3.9823923287        1.9338003697
  C        11.8744717254        1.0455348622        1.2846942000
  H        12.3139805335        3.2452307527       15.4475453544
  H        11.3012038568        1.9497989345       16.0879719812
  C        13.4126299146        1.7548225883       16.3842686788
  C         6.9589062189        8.3200831786       16.4992616198
  H        13.1526474956        4.7875045788        6.7794512830
  H        13.4877405251        3.8727537935        5.3287974375
  C        14.7779415624        5.6514060278        5.6728994172
  H         8.4196863177        4.4879927415        4.2737706601
  H         9.1477509102        4.3591663205        2.5721571306
  C         7.5497798486        5.8245797534        2.7915374413
  C        11.7866570132       -0.3386326333        1.0420681948
  C        12.2291065920        1.8411268803        0.0088453587
  H        14.4075434183        2.0631655459       16.1036403901
  H        13.3859258890        0.6587237949       16.1862012760
  C        13.2076986410        1.8153280085       17.8793429749
  H         7.1717998270        9.3350468311       16.4174847355
  C         6.5532340951        7.9573510663       17.7841971252
  H        14.7529572716        6.6561682240        6.0288060766
  H        15.1872399070        5.7117166524        4.6166479176
  C        15.8002323411        5.0078579340        6.6215163266
  H         6.9090262774        6.2470092161        3.5505768972
  H         7.8297598967        6.6379951945        2.0978986848
  C         6.6362369476        4.8899318882        1.9163314582
  N        11.3975453659       -1.2376895317        2.0723592717
  C        12.0308692186       -0.9640253461       -0.1543082994
  C        12.5380325726        1.2227658246       -1.1443836985
  H        12.3726916844        2.9052818890        0.1608600115
  H        13.0329808194        2.8139052824       18.1890276024
  H        14.2066569942        1.4994338577       18.3071707158
  H        12.4272972594        1.1592232914       18.1330144283
  S         6.3140605112        6.3544189985       18.4130885611
  C         6.5462912532        9.0228238764       18.8002356693
  H        15.3093824631        4.8552522042        7.6007154947
  H        16.1187946266        4.0689752320        6.2818656861
  C        16.9807789758        5.9215460154        6.7655202208
  H         6.1667459444        4.1323972144        2.5840216519
  H         7.2883271720        4.2815052537        1.2827055619
  C         5.6330094655        5.6492480393        1.0260635894
  S        11.2191053574       -2.6896691027        1.3404497204
  N        11.6167332338       -2.2379038381       -0.1819673393
  C        12.3933412856       -0.2220165850       -1.3136630825
  H        12.8660380358        1.7718235725       -1.9547176284
  C         6.0576596794        7.1462120878       19.9393835610
  N         6.2438128422        8.4892399393       19.9372404563
  O         6.7154105310       10.2172808582       18.5199006004
  H        17.0581695769        6.4771348719        5.8224825631
  H        16.7307504893        6.7753715778        7.4332992226
  C        18.2113361280        5.1643419218        7.2989904129
  H         6.0414993578        6.2484540575        0.2023940229
  H         5.0162451319        4.9165259643        0.5471528209
  C         4.6690757609        6.5054776902        1.9295715194
  C        12.6844297307       -0.9499900629       -2.5324557466
  S         5.8272464578        6.2051645202       21.4495509752
  C         6.3594620128        9.3247760601       21.1259360204
  H        18.1183493767        4.8784788306        8.3417232667
  H        18.2645972570        4.1603812623        6.8274737026
  C        19.5393173129        5.9054559310        7.0091752037
  H         4.6931061040        6.3281398329        2.9917626885
  H         3.5874901000        6.2039939452        1.6265939276
  C         4.9492319926        7.9815170435        1.6402686010
  H        12.5003583054       -1.9469467044       -2.3620806728
  C        13.1548705043       -0.6049552652       -3.7416747933
  H         5.6449025117        9.0696936973       21.8975040106
  H         6.1650788219       10.4143026253       21.0105522895
  C         7.7759686480        9.2527180215       21.6934790914
  H        20.2940754668        5.4762407910        7.6332154502
  H        19.4411551589        6.9669996886        7.3006837082
  C        20.0262808856        5.9051271149        5.6445714690
  H         5.9604407192        8.2737412444        1.8572716588
  H         5.0101822443        8.1839420284        0.5762011086
  C         3.8955734186        8.9486185237        2.2916522504
  S        13.7759321600        0.9059973513       -4.1286851648
  C        13.3684329068       -1.6246553526       -4.8126162751
  H         7.7351877206        8.4670594754       22.4585212679
  H         7.9324225044       10.1536756338       22.2240691221
  H         8.5480785700        9.0709625289       20.9104288446
  H        19.8975088386        4.9477740665        5.2212299329
  H        19.6113355460        6.7054970925        5.0342861780
  H        21.0617073097        6.1153666314        5.5482200013
  H         3.5222249829        9.7092620631        1.5424653276
  H         3.0456471830        8.3805149694        2.6789082305
  H         4.2932205158        9.4264619030        3.2073337588
  C        14.2164795351        0.2524287565       -5.7005888310
  N        13.9063847203       -1.0610966570       -5.8834143147
  O        12.9372999439       -2.7077734739       -4.7571459339
  S        15.0661060828        1.0675888565       -6.9847527543
  C        14.0479848303       -1.7772793916       -7.1754538782
  H        14.0906872048       -2.8020713099       -6.7714851701
  H        15.0122569011       -1.5955937321       -7.6976484478
  C        12.7888837512       -1.6699045539       -8.0222501518
  H        11.9347246584       -1.3079473272       -7.4064614468
  H        12.5509901235       -2.6484739155       -8.5301688737
  H        13.0745050421       -0.8729460029       -8.7511131542
  H        -3.4159057032       14.4328006450       15.7899138749
  C        -3.4651959131       13.4290512720       16.2306818954
  H        -4.4467355790       13.2035000595       16.6091146218
  C        -2.4900147949       13.0455800904       17.3580419417
  C        -3.4216177666       12.5036365169       14.9898967187
  C        -3.1192561655       13.5253301232       18.6802565118
  H        -2.3181488676       11.9839133750       17.4276610138
  H        -1.6065863780       13.5179774126       17.2529901186
  H        -4.0251205950       11.6052217127       15.1600714822
  H        -3.7402345449       13.0323555627       14.0985781368
  H        -2.4379321696       12.0121607729       14.8757973315
  C        -2.0761027661       13.5786919343       19.8159276515
  H        -3.9111943564       12.8410920237       19.0142807596
  H        -3.6278310446       14.4978078069       18.6027194856
  C        -2.5639449575       13.0693150522       21.2329450993
  H        -1.2215958963       12.9530086422       19.6735918857
  H        -1.5792451172       14.5549376971       19.8501969398
  C        -1.5569945537       12.4541017475       22.2080527763
  H        -3.5217084334       12.5320247805       21.1548668151
  H        -2.8292737138       13.9123323269       21.7401515560
  C        -0.1885398030       13.2655846395       22.4451177587
  H        -2.0601982309       12.3136167948       23.1306144715
  H        -1.4063612714       11.3923069455       21.8422659713
  C         0.9517158507       12.5798851490       23.3312116026
  H         0.2392160464       13.4834502808       21.4649074190
  H        -0.5029910473       14.1768517460       22.8651073352
  C         1.3970436977       11.2038273421       22.7028793451
  C         0.4451472724       11.8814658558       24.5484608947
  C         2.1858300747       13.4485677114       23.6915250753
  C         1.0694208731       10.1138877304       23.4891270742
  C         2.1507063504       10.7848243196       21.5777229442
  C         0.5263896088       10.5361373114       24.6662352917
  C         0.0285684473       12.4877125838       25.7652184434
  H         2.3888722086       14.1196474532       22.7836666215
  H         1.8593764531       14.0740486076       24.4952824740
  C         3.4906364174       12.7969530008       24.2528971180
  S         1.3986764012        8.5517521846       22.7287696923
  C         2.1624636191        9.4054934508       21.4391372746
  H         2.6073449645       11.5636264520       20.9305523989
  C         0.1118398916        9.9090435660       25.7895306227
  H         0.1063508618       13.5356286806       25.9409042964
  C        -0.3055023315       11.9071426086       26.9760205737
  H         3.8079345434       12.1417825594       23.5132431503
  H         3.2322360356       12.2536587809       25.1373589202
  C         4.6670336700       13.8797581232       24.5029685849
  C         2.6038660466        8.7026729255       20.1806055982
  C        -0.3147920177       10.5266741248       26.9653976501
  H         0.1111885274        8.8204288449       25.7643352548
  C        -0.6180428046       12.3627708458       28.2343700164
  H         5.4776016438       13.4443466773       25.1229939795
  H         4.2923059693       14.7406714845       25.0942291100
  C         5.2615737926       14.4578583569       23.1891305085
  C         2.5389753778        7.3000191236       19.9340554149
  C         2.9985412583        9.5679161255       19.0119884231
  C        -0.6665006141        9.8819287216       28.3156904273
  C        -0.8257847371       11.2562240863       29.0657880685
  S        -0.6340031435       13.8823131444       29.0947621031
  H         5.4650478072       15.4586493395       23.4582915768
  H         4.4151683312       14.4874894006       22.5297064192
  C         6.4371144003       13.6071617484       22.5880327246
  N         2.3610994146        6.3610305299       20.9158032865
  C         2.8431723036        6.7742404882       18.6595427253
  C         3.2621565932        9.0478804691       17.7710505631
  H         2.9623457424       10.6361255775       19.0819360210
  C         0.5161983572        9.0950295195       28.9298594708
  C        -1.9624680039        8.9937324643       28.2528179433
  C        -1.1534924634       11.6543897639       30.3524495065
  C        -1.0838700225       13.0211445222       30.5693323903
  H         7.4576385253       13.9190157079       22.9529637689
  H         6.3319472456       12.5669073243       22.9561532928
  C         6.3204826704       13.6927770284       21.0903381190
  S         2.5445519429        4.8751543870       20.2463894259
  N         2.8373493042        5.4109202229       18.7238558796
  C         3.1717975319        7.5730071762       17.5260435598
  H         3.4445236643        9.7243303893       16.9434732171
  H         1.0001797427        8.6321381057       28.0609447426
  H         0.2241024342        8.4147973352       29.6936983897
  C         1.6843980301        9.9327439505       29.5538156923
  H        -1.8721251689        8.1893965324       27.5838731376
  H        -2.1433164976        8.5118957257       29.1814927747
  C        -3.3052085568        9.7275698204       27.8611452364
  H        -1.4873717782       10.9473506716       31.0249196513
  C        -1.4318752750       13.7112488366       31.8110093950
  H         6.1846788811       14.7287552523       20.8763321523
  H         5.3399629263       13.2433089044       20.7297128730
  C         7.5115017865       13.0679725652       20.2769494837
  C         3.3571837635        6.9510178035       16.3112986224
  H         1.9250725051       10.7972666617       28.8684504349
  H         1.3651303358       10.3210128678       30.4853508056
  C         2.9882497551        9.0967161987       29.7269801320
  H        -3.1289794166       10.2627266182       26.9452829679
  H        -3.5316772798       10.3612076514       28.7284061715
  C        -4.4119178513        8.6723770598       27.6141516562
  C        -1.6321756944       15.0667443970       32.0371740328
  C        -1.7341066695       12.8674725627       32.9406416516
  H         8.4770821783       13.2810474515       20.7498973148
  H         7.5531001146       11.9110418806       20.2955122033
  C         7.5271149975       13.5584151952       18.8061483278
  H         3.1805517485        5.8653692920       16.2870767464
  C         3.6514847271        7.3749673773       15.0196788988
  H         3.1854498454        8.6199739894       28.7761273113
  H         2.7310620262        8.2561452639       30.3995638111
  C         4.1538850069        9.8397043392       30.4030077760
  H        -4.1028202727        8.0795441975       26.7685825836
  H        -4.4075863583        8.0285896778       28.4979082265
  C        -5.6548427517        9.4202558521       27.3233731070
  N        -1.3836046040       16.0264813311       31.0833682626
  C        -1.9549028412       15.6701712470       33.2717383542
  C        -2.1639341508       13.4213382240       34.1709705010
  H        -1.6260981933       11.7851702408       32.9345942286
  H         8.2212696176       14.4296949958       18.5588309132
  H         7.8004178610       12.7255139238       18.0771527834
  H         6.5769333120       13.8561668217       18.4030076466
  S         4.0120853607        8.9783489212       14.5496087414
  C         3.6241657213        6.3287601706       13.9436449325
  H         4.3928138398       10.7731659547       29.9327213583
  H         3.8256229672        9.9635168839       31.4321533481
  C         5.5015040254        9.0272707844       30.3398388748
  H        -5.7365870658       10.2737829989       28.0201598112
  H        -6.5434495776        8.8466132323       27.5662889742
  C        -5.8172350546        9.8584568600       25.9128110318
  S        -1.3693618651       17.5119982117       31.8110502860
  N        -1.8744578809       17.0756179684       33.2877661801
  C        -2.2973076254       14.8970870505       34.4194251809
  H        -2.3285580026       12.7534910629       35.0302450056
  C         4.4270006876        8.3072352646       13.0390534450
  N         4.1683710366        6.9461870214       12.8779434488
  O         3.2457184254        5.1728679889       14.1234365218
  H         6.3248488395        9.7282241909       30.5490161365
  H         5.6334508799        8.6529495754       29.3420509598
  C         5.5839222596        8.0833924857       31.5185060726
  H        -5.1153753586       10.7012135405       25.8043167300
  H        -5.5117469872        9.0737874922       25.2744269132
  C        -7.2609695848       10.3224615586       25.7286845360
  C        -2.5241523215       15.4596221005       35.6656505783
  S         4.7436731504        9.3156574551       11.6370227539
  C         4.2358164743        6.3266876921       11.5667948870
  H         6.0088411493        8.6413777241       32.4244018557
  H         4.6002270748        7.6127939091       31.6760409942
  C         6.5704466400        6.9230711993       31.2741134064
  H        -7.2279419015       11.1373690900       25.0256798478
  H        -7.5302681415       10.7557698621       26.7134590097
  C        -8.1805024521        9.1613770745       25.3316682706
  H        -2.1871711811       16.4410889282       35.7960289690
  C        -3.1474787450       14.9751132816       36.7723519665
  H         5.0707195166        6.6167224692       10.9164403840
  H         4.4067708406        5.2829965380       11.6774811337
  C         2.8643742455        6.5031971545       10.8830409470
  H         7.5615633663        7.2861528508       30.9842603057
  H         6.1420824263        6.3158141930       30.4568699437
  C         6.7817628487        6.0999753613       32.5599123892
  H        -7.8130388460        8.5894967665       24.5356826612
  H        -8.3619185806        8.4757090412       26.1137598583
  C        -9.4989959182        9.6938657142       24.8296957020
  S        -3.7990464194       13.4535833677       36.9333442329
  C        -3.3835589570       15.8545868388       37.8607945875
  H         2.9910782371        7.1999599409       10.0299942416
  H         2.4616547107        5.5325262283       10.5253641838
  H         2.1079118023        6.9824058873       11.4731443775
  H         7.5264748856        6.4841795531       33.2572028354
  H         7.1324944535        5.0842842016       32.2683799708
  H         5.7608087517        5.9350015033       32.9211986356
  H        -9.6473690480        9.7052081010       23.7734996213
  H        -9.8486508449       10.6101118722       25.2519228188
  H       -10.2845135938        8.9807383248       25.1144767863
  C        -4.3906292369       13.8831746103       38.5397066415
  N        -4.0858505517       15.1987441787       38.8164561277
  O        -2.8156070134       16.9467279929       37.8769752386
  S        -4.9516048297       12.8053969640       39.7755000092
  C        -4.2627546476       15.7743841437       40.1041813499
  H        -4.2057202731       16.8494285156       39.9650672930
  H        -5.2982760088       15.5387697408       40.5469291824
  C        -3.1242651604       15.4145070400       41.0293251000
  H        -2.3517104458       16.2059375314       41.0206414512
  H        -3.5731628792       15.3393614144       41.9501000538
  H        -2.6669259582       14.4729472364       40.7271682272
