352
i =
  H        -2.6495625119       14.7349100575       16.6415226924
  C        -2.5955364264       13.6711163076       16.7513938027
  H        -3.4277733259       13.4120912454       17.2975291386
  C        -1.3135866374       13.3219016162       17.5804122035
  C        -2.5878858052       13.1391367976       15.3207328718
  C        -1.3779283412       13.9299060816       18.9658054193
  H        -1.0641327403       12.3163700886       17.7359923753
  H        -0.4861479347       13.8245284546       16.9835051072
  H        -1.8486829407       13.7108082668       14.7811618447
  H        -2.4288364633       12.0657936017       15.2831820678
  H        -3.5608290097       13.4118210714       14.8133954762
  C        -1.5230816967       12.8026982880       19.9990073997
  H        -2.2577734959       14.5889773136       18.9982852039
  H        -0.5126648081       14.5573013781       19.1826187503
  C        -1.9439332012       13.2857629865       21.3637687794
  H        -2.1685683148       11.9958874690       19.6379886323
  H        -0.4915629484       12.4181134408       20.2035330384
  C        -1.1542260775       12.8092513727       22.5433547805
  H        -2.9418590088       12.9137147208       21.5202847295
  H        -1.9592412705       14.3750844578       21.2198412552
  C        -0.0289099163       13.7881080749       22.8211794128
  H        -1.6651561365       12.8728733751       23.4909860370
  H        -0.8648028069       11.7632699613       22.5556048661
  C         1.2138431245       13.1034862922       23.4643022637
  H         0.2906571242       14.3051766468       21.9020917491
  H        -0.4217373403       14.5384292904       23.5447069098
  C         1.6296150337       11.7513860114       22.8067196208
  C         0.8518770498       12.3730014907       24.7424357837
  C         2.4042967736       13.9986010835       23.5836258667
  C         1.4624801807       10.6295372671       23.6405547912
  C         2.1934827497       11.3916744829       21.5749473036
  C         0.9505596224       11.0177448480       24.8697604557
  C         0.3784249468       12.9923157088       25.8930296116
  H         2.4939612864       14.4230263181       22.5667074108
  H         2.1624892068       14.7072966943       24.3325026000
  C         3.7729864469       13.3028398705       23.9805761069
  S         2.0636076171        9.1336995424       22.9888044918
  C         2.3912776403       10.0301098162       21.5420011885
  H         2.2863641788       12.2266272476       20.8612666162
  C         0.6887635329       10.3883020669       26.0839994565
  H         0.1459314539       14.0616969949       25.7474690057
  C         0.0644620278       12.4013089174       27.0989241738
  H         4.0390498190       12.6083181150       23.1820069395
  H         3.7994216171       12.7467858652       24.8554247916
  C         4.9908766180       14.2934831946       24.1092357869
  C         2.8764515799        9.3669168801       20.2469258901
  C         0.2795345291       11.0609069162       27.2715230487
  H         0.7292164366        9.3160941813       26.1549239747
  C        -0.3642884589       12.7921192094       28.3544922436
  H         5.8189299254       13.8728767846       24.5988149126
  H         4.6863690051       15.1594944595       24.7361678683
  C         5.5784842620       14.7987596261       22.7673229828
  C         2.6507027537        8.0011771717       19.9142573615
  C         3.2553397534       10.2311769694       19.0960532570
  C        -0.1277214761       10.3704829286       28.5826580037
  C        -0.4447001813       11.7176627630       29.2421020360
  S        -0.7926050071       14.3347637963       28.9785510379
  H         6.2769943679       15.5958769108       23.0026124371
  H         4.8132418139       15.4230369546       22.2742594395
  C         6.3488017734       13.7750962305       21.9779641990
  N         2.1978693596        7.0397916094       20.7698621904
  C         2.9247584920        7.5222329133       18.6697073956
  C         3.5314414363        9.7231468880       17.8812316864
  H         3.3601824007       11.2843451889       19.2614265640
  C         1.0512550653        9.6335518073       29.1784409986
  C        -1.4391380246        9.5185440304       28.3422807321
  C        -0.7758471207       12.2073377702       30.5038472842
  C        -1.1095565553       13.5647008357       30.5307921401
  H         7.3866305498       14.1351243904       21.8929513051
  H         6.4312156535       12.8441405859       22.4623471307
  C         5.7351571245       13.5456669487       20.5874198107
  S         2.3069804064        5.6223673574       20.0335449294
  N         2.6912437609        6.1651976694       18.5490600344
  C         3.3100269662        8.2463587494       17.5845978789
  H         3.7454145225       10.4213339919       17.0630531657
  H         1.3946010856        8.8926543520       28.4306178183
  H         0.6113854998        9.0335886702       29.9381169772
  C         2.1370909143       10.5439756407       29.6912594687
  H        -1.1206563798        8.6737750349       27.7231239856
  H        -1.7995771010        9.2468637901       29.3904662919
  C        -2.4365584526       10.2793907526       27.5249821139
  H        -0.8905302611       11.5182861372       31.3097710229
  C        -1.4295714511       14.3259418944       31.7746141029
  H         4.9005247157       14.2143984125       20.5750423564
  H         5.2922506632       12.5742897228       20.6112442124
  C         6.7036706134       13.5388686355       19.5204715562
  C         3.4597387138        7.6630168284       16.2858652312
  H         2.5266585041       11.2446919004       28.9144622180
  H         1.8272357815       10.9814912451       30.6208613836
  C         3.2304214502        9.6641294727       30.1975746516
  H        -2.1444562123       10.5352935380       26.5432053812
  H        -2.7394968924       11.1986824738       27.9794470303
  C        -3.7527883642        9.5067604340       27.5252054696
  C        -1.6100031426       15.7821132212       31.8637658412
  C        -1.6671818279       13.5718813478       33.0671881630
  H         7.0604471683       14.4786373137       19.4001794596
  H         7.4659623363       12.8480599554       19.7791128600
  C         5.9834363980       13.1150308575       18.2145149639
  H         3.0887000362        6.6204353297       16.2181274307
  C         3.7389060505        8.2133726793       15.0672941396
  H         3.3575291102        8.7325840987       29.6617188478
  H         3.0084807684        9.3883980767       31.2120372394
  C         4.5237731116       10.4584286175       30.2295975536
  H        -3.7079050290        8.6609997638       26.8394103950
  H        -3.9334384913        8.9639401328       28.4955072347
  C        -4.8516872304       10.4294624354       27.1538173431
  N        -1.4648045239       16.6578351484       30.7979215173
  C        -1.8924496662       16.4255161715       33.0713196664
  C        -1.9275090755       14.2519779237       34.2837946784
  H        -1.7167033549       12.4956388441       33.0792010673
  H         6.4694667220       12.5097264119       17.4738876722
  H         4.9920620616       12.6517978371       18.3477360688
  H         5.7550948879       14.0963459106       17.7578272849
  S         4.0685387558        9.8375672686       14.5474743250
  C         3.8562032931        7.2714419155       13.9473784731
  H         4.6335923916       11.0793951420       29.3225188152
  H         4.4447643889       11.2496098082       30.9617918066
  C         5.8198698242        9.6841682644       30.4055267142
  H        -4.5278258025       11.3971937133       26.7217770006
  H        -5.4551012819       10.7356747925       28.0237467279
  C        -5.8134388867        9.7509347828       26.0533099357
  S        -1.5274426406       18.2074551445       31.4049130284
  N        -1.8496504569       17.8296872892       32.9240187796
  C        -2.0508440729       15.7270532338       34.3053508683
  H        -2.0687998816       13.7035486412       35.2004847407
  C         4.3514584705        9.2310917044       12.9411842673
  N         4.3029237011        7.9069079979       12.8838187755
  O         3.8074484970        6.0498583383       14.0182182828
  H         6.5490298063       10.3016080085       30.9720901462
  H         6.2531420074        9.5227447573       29.4150225963
  C         5.8395587511        8.2710536519       31.0676446684
  H        -5.2445253285        9.1569907488       25.3438662932
  H        -6.4258462368        9.0100349418       26.5431646962
  C        -6.6706398284       10.7549674793       25.3531919828
  C        -2.3007197580       16.4638850813       35.4759278218
  S         5.0114523335       10.1783028174       11.6088417242
  C         4.4064151619        7.1960423672       11.6391017306
  H         5.8708716295        8.4620433653       32.1279586274
  H         4.7949476139        7.8982734138       31.0394759869
  C         6.7922132911        7.2625032587       30.4675748617
  H        -6.1818445058       11.1116523387       24.4376574655
  H        -6.8419300890       11.7387071633       25.7772322491
  C        -7.9889368469       10.2188115528       24.9117165122
  H        -1.7602193198       17.3536724488       35.5111274668
  C        -2.9125463962       16.2427907247       36.6434514094
  H         5.1360730068        7.5748331175       10.9153976272
  H         4.8092899767        6.2081476040       11.8156284519
  C         3.0142263614        7.0820438713       11.0621864634
  H         7.8240235655        7.6145359383       30.4683483253
  H         6.5789988664        6.9705180933       29.4073296354
  C         6.7597293173        6.0261942488       31.3141560931
  H        -8.3921877743       10.8672298901       24.2484656793
  H        -7.8179282251        9.3100645402       24.3863975557
  C        -8.9851903895       10.1120249169       26.0622327282
  S        -3.8593860573       14.8972233342       36.9608915538
  C        -2.9649925846       17.3876582018       37.6241499288
  H         2.6442777004        7.9584148833       10.5044746519
  H         2.9186292660        6.3526123732       10.2721166830
  H         2.3094120038        6.8213288873       11.8496776158
  H         6.6449873575        6.0905080259       32.3626376035
  H         7.7452059080        5.4864299715       31.3152015637
  H         5.9998078974        5.3693830181       30.9905927706
  H        -8.7736019242        9.0666536772       26.4691957613
  H        -9.9924623807       10.2597172802       25.6891038822
  H        -8.7217063259       10.8541750586       26.7825405098
  C        -4.2610644005       15.6870117679       38.4911742056
  N        -3.8007044879       16.9340127317       38.6009417645
  O        -2.3453696623       18.4065066878       37.5061402726
  S        -4.9764276671       14.8965786741       39.8990904462
  C        -4.0093369384       17.8587372664       39.7181617274
  H        -4.0812200784       18.8881092953       39.4007271765
  H        -4.9081170457       17.6510468979       40.2077462134
  C        -2.8509475761       17.7515174115       40.7447685363
  H        -3.2306767634       18.4051854084       41.5590306587
  H        -2.7057741926       16.7270918823       41.1097826364
  H        -1.9184393107       18.0031442043       40.2149430795
  H         7.6849891225       11.5255379506        3.7365156704
  C         8.2990244172       10.5603139689        3.8385077850
  H         7.5977111239        9.7171865983        3.9979308871
  C         9.1195040379       10.5288794940        5.1418672451
  C         9.1544993131       10.3458695689        2.5421416267
  C         8.3697712464       11.0224489898        6.3827830131
  H         9.5735386532        9.5728818057        5.4546906155
  H        10.0515775415       11.1165574744        5.0054519445
  H         8.5428809893       10.5468317644        1.6565026630
  H         9.5833260358        9.3730254185        2.3101388680
  H         9.8819123700       11.1231529380        2.4638686696
  C         7.5323669069        9.9205928575        7.0232572676
  H         9.0954552394       11.4226873784        7.0345648036
  H         7.7909752271       11.9422177147        6.1608939846
  C         6.6352122799       10.2175996345        8.2369177116
  H         8.0842717869        9.0238062098        7.1515446266
  H         6.8539770874        9.5834019264        6.2793632484
  C         5.4523709128       11.0508410263        7.8795421133
  H         7.2635679751       10.5438163172        9.0521304586
  H         6.2690692950        9.2890990732        8.5515783126
  C         4.2905651746       10.2535879498        7.2101607504
  H         5.1639297961       11.6287763980        8.7797831808
  H         5.8115100484       11.8114970181        7.1628612413
  C         3.0208798015       11.1003539163        6.8801662396
  H         3.8853467092        9.4509224871        7.8728980017
  H         4.5444221759        9.8551932616        6.2536467594
  C         3.2764969014       12.4634043939        6.2399345236
  C         2.5773960784       11.8052561978        8.1539410029
  C         2.0135514019       10.3290947780        6.0696126657
  C         2.9254256218       13.5600413645        7.0017166629
  C         3.8761231930       12.8037821517        5.0380604068
  C         2.5196188649       13.1502750404        8.2622418159
  C         2.0880621556       11.0985825039        9.2508960824
  H         2.5434741015       10.2771586006        5.1411924985
  H         1.8746327382        9.3692711323        6.3857901724
  C         0.6227718257       11.1072897803        5.9384800195
  S         3.2443196277       15.1117197996        6.2629540701
  C         3.8643827962       14.2003920845        4.8640615783
  H         4.2784769016       12.0365334644        4.3892420748
  C         2.1322521432       13.7397003479        9.4887564671
  H         2.0339934914       10.0279223044        9.1592876273
  C         1.6590761683       11.6680237867       10.4301423498
  H         0.8155024071       12.0700858270        5.5190584886
  H         0.2559576350       11.1879238741        6.9694904978
  C        -0.4654635119       10.3738751857        5.0646174144
  C         4.2633976737       14.8907834493        3.5958251475
  C         1.7615674482       13.0055169876       10.6561356520
  H         2.0717538217       14.8394487858        9.6357623864
  C         1.2325244189       11.2739138088       11.6859842282
  H        -1.3795122212       10.9519804274        5.0612194166
  H        -0.6828121641        9.4425283695        5.6110486759
  C         0.0922636487       10.0775057555        3.6550742047
  C         4.1735766423       16.3025610007        3.3372565066
  C         4.7439465396       14.0496151976        2.4546676778
  C         1.2986461895       13.6475532135       11.9207016246
  C         1.0970249830       12.3301504823       12.5839207927
  S         1.0729505586        9.7423224106       12.4273694907
  H         0.6263036095        9.1009985201        3.6116961969
  H         0.8856240615       10.7147440826        3.2504587496
  C        -1.0720184804        9.7460418364        2.6640133347
  N         4.0503657601       17.2747605688        4.3164853857
  C         4.2356868616       16.7876980176        2.0614607473
  C         4.9616935819       14.6115906132        1.2373664433
  H         4.9606763331       12.9931068804        2.6157140152
  C        -0.1192387110       14.2358949122       11.8415917025
  C         2.4096032112       14.5999814238       12.5366624974
  C         0.7964446586       11.8353945096       13.8313593559
  C         0.7132044777       10.4627904204       13.8716862129
  H        -1.8422226698        9.2772645018        3.3452226801
  H        -1.4773541908       10.6784557229        2.3178770628
  C        -0.7308337886        8.7753569891        1.5364776648
  S         4.0065665442       18.7195743693        3.6196795240
  N         4.1479700521       18.1352012688        2.0537059725
  C         4.6648188410       16.0485559450        0.9333042787
  H         5.2517918041       13.9342213785        0.4623468998
  H         0.0283226419       14.9577422064       11.0479437567
  H        -0.4892825999       14.7619616493       12.7453318228
  C        -1.2236225849       13.3425612668       11.2692488678
  H         2.4437079931       15.4929714092       11.9266189813
  H         2.2297200993       14.7816037408       13.5747245327
  C         3.8446937241       14.1041885701       12.4790436060
  H         0.7403668051       12.6191957085       14.5992114996
  C         0.4574143843        9.6587686943       15.1391909638
  H        -1.6837107021        8.4855981440        1.0382653024
  H        -0.3952134897        7.7612847715        1.7707134078
  C         0.0607546592        9.4939358058        0.3863381003
  C         4.8714460111       16.6969258816       -0.3420418153
  H        -0.8734122862       12.6451582328       10.6212294899
  H        -1.7085905082       12.7860488658       12.0474959622
  C        -2.3658550546       14.2250871294       10.7220629468
  H         4.2090989391       14.3685745421       11.4793316162
  H         3.8744971774       13.0081007310       12.6049491746
  C         4.8066800554       14.7532412131       13.5852829393
  C         0.4068483948        8.2333197530       15.1418380825
  C         0.1884256007       10.4239648194       16.3561534437
  H         0.9212684046        9.8920957894        0.8813436941
  H         0.4069566332        8.7231094203       -0.2854271581
  C        -0.7006664941       10.4681487397       -0.4168453265
  H         4.6107446777       17.8004388331       -0.3769180194
  C         5.2408239795       16.2435662084       -1.5850690039
  H        -2.0291405655       15.0004760778       10.0647781551
  H        -2.8480646991       14.8368860341       11.4625700683
  C        -3.4229448743       13.3616982913        9.9811503587
  H         4.4701076417       15.6945292515       14.0254692223
  H         4.8984941244       14.1474103252       14.5034497726
  C         6.1148010403       15.1440718537       12.8030227374
  N         0.5724274518        7.3737172336       14.0437896880
  C         0.2018148654        7.5897583494       16.3715313178
  C        -0.0675527442        9.7281465735       17.5867254352
  H         0.2987848030       11.4606256191       16.3863370277
  H        -0.4224830280       10.3794412735       -1.4256558938
  H        -0.5465010902       11.5198640755       -0.1015031477
  H        -1.7919296135       10.1922458800       -0.3824459314
  S         5.4798987366       14.5560274950       -2.0095438942
  C         5.3583862933       17.1411929006       -2.7169100871
  H        -3.0915751020       12.9987357850        8.9814555396
  H        -3.6319795286       12.5163059024       10.6619784421
  C        -4.6998989859       14.0331366706        9.7200667795
  H         5.8084164092       15.4309351536       11.7945761552
  H         6.8610772498       14.3462190210       12.7089118276
  C         6.7294497714       16.3811492705       13.4317794869
  S         0.4201606542        5.8722122660       14.6748016248
  N         0.1011601928        6.2066929538       16.2283470293
  C        -0.0107388748        8.2292265941       17.6130388828
  H        -0.1996407338       10.3566256784       18.5127898835
  C         5.7729218326       15.1272440097       -3.6465925727
  N         5.6933009133       16.5014442083       -3.8098985406
  O         5.1283463171       18.3153981793       -2.5692768101
  H        -5.1073303417       14.2932320650       10.6498092890
  H        -4.4605735620       14.9012507678        9.1558479908
  C        -5.7394181320       13.2805803404        8.8837384648
  H         7.5356078984       16.7573532684       12.7895806872
  H         5.8743816165       17.1492290437       13.4267259334
  C         7.4188197931       16.2089764097       14.7886118852
  C        -0.4755672087        7.4095901602       18.7093617605
  S         6.0068282492       14.1404562211       -5.0742270393
  C         5.7505348517       17.0510864040       -5.1988135816
  H        -5.3386244539       13.0509636676        7.9315917206
  H        -6.0833938368       12.3530263870        9.3601328930
  C        -7.0338068013       14.0307833395        8.7808181725
  H         7.7780740773       15.1546400848       14.8236363038
  H         6.6560408180       16.2805825905       15.5771846158
  C         8.4763443795       17.2493673300       15.1901994927
  H        -0.1301780333        6.3823914881       18.6230508465
  C        -0.9517233422        7.7714427985       19.9721906080
  H         6.5492523391       16.6768520433       -5.8073372471
  H         5.8957699412       18.1829096170       -5.2752210717
  C         4.4156956509       16.7575382084       -5.8205366915
  H        -7.4481721857       13.4999536231        7.9588998266
  H        -6.7776086741       15.0766991256        8.4533939166
  C        -7.8434723106       13.8866488328       10.0713841469
  H         8.9786976764       16.9329584957       16.1150538429
  H         9.1958168839       17.4803848241       14.4299444730
  C         7.6701449534       18.5309503640       15.4992804152
  S        -1.4771746049        9.3610598881       20.4854821356
  C        -1.1582757280        6.6610832577       20.9241816032
  H         3.7377860654       16.2640639753       -5.1416255501
  H         4.4903510582       16.2175117293       -6.7430065871
  H         3.9814270162       17.7692023776       -6.0259682642
  H        -8.8837921424       14.3478620844       10.0563796474
  H        -8.0468777275       12.8310249086       10.4568340914
  H        -7.2063596142       14.3603677063       10.8263463607
  H         7.2378735874       18.5330765312       16.4655947568
  H         8.2895121033       19.4620751131       15.5484029770
  H         6.7954235742       18.6710598753       14.8386131887
  C        -1.9263502534        8.4964666088       22.0043653146
  N        -1.6337494451        7.1639931544       22.0339719595
  O        -0.7759093023        5.5295081597       20.7510825846
  S        -2.2656286123        9.3295827628       23.4815446244
  C        -1.6902198375        6.3400358766       23.2657659476
  H        -1.8835324554        5.2865017266       23.0758852794
  H        -2.5850487594        6.7143622940       23.8199833691
  C        -0.3666401977        6.3515534609       24.0595160542
  H         0.5247553063        6.4721388001       23.5248135457
  H        -0.3576850330        5.4590981359       24.7192404000
  H        -0.4105847216        7.1567445340       24.7535311001
