352
i =
  H        -3.7665008928       14.3021225891       16.4434862375
  C        -3.0619176568       13.4639185170       16.5163933244
  H        -3.4625218906       12.5314521251       16.9693245769
  C        -1.8427248778       13.8979174407       17.3498525611
  C        -2.6568204298       13.0529677478       15.0489864798
  C        -2.1318461646       14.4019454730       18.7792208020
  H        -1.3165491261       12.9352396123       17.5106028634
  H        -1.1002882919       14.5168190546       16.8457699391
  H        -1.6111994910       12.8016126297       14.9895155748
  H        -3.3216454304       12.2834237116       14.6831259858
  H        -2.8274023416       13.8482675717       14.3478354169
  C        -2.9110068823       13.3728032214       19.5801011252
  H        -2.5721829243       15.3697610984       18.7995253466
  H        -1.1906371264       14.6288136907       19.3788561029
  C        -2.6437649084       13.6220392010       21.1456503204
  H        -3.9315281540       13.4660112792       19.2935877545
  H        -2.6326405270       12.3228072760       19.2409005741
  C        -1.4238687549       12.8594131400       21.6773101517
  H        -3.5006021144       13.4540920097       21.7820098075
  H        -2.4839738383       14.6722737681       21.2695451159
  C        -0.4618070958       13.7705663123       22.4935066176
  H        -1.5588555571       11.9309200002       22.2744925651
  H        -0.7925912757       12.5233483692       20.8794387635
  C         0.6565765308       13.0013860171       23.3317661876
  H        -0.1583424636       14.6104785487       21.8377622158
  H        -0.9564041095       14.3529770599       23.2544090438
  C         1.0903270774       11.7054066583       22.6186473132
  C         0.2475926571       12.2297892338       24.5630490503
  C         1.8217532800       14.0172955839       23.5878951091
  C         0.8576049777       10.5286166652       23.3949711745
  C         1.6934934186       11.3890495999       21.4229140312
  C         0.3389801219       10.8562873627       24.6017181544
  C        -0.2411448861       12.8003079381       25.8047659621
  H         1.9539518840       14.6365017120       22.7017361150
  H         1.4439028349       14.6837064816       24.3501864677
  C         3.0866648980       13.2636383263       23.9302972406
  S         1.3480332456        9.0959432301       22.6205644941
  C         1.8743830117       10.0511369870       21.2813070248
  H         1.8061397890       12.2372995048       20.7437944254
  C        -0.0964044303       10.2250163834       25.7195596830
  H        -0.4102253736       13.8984565161       25.6952899266
  C        -0.5120789938       12.1559775787       26.9281160743
  H         3.4686236931       12.6031036516       23.1164731951
  H         2.8878088461       12.6660759267       24.7511184266
  C         4.2062032091       14.2108652464       24.2242117705
  C         2.4561495321        9.4229618721       20.0530624241
  C        -0.5250947195       10.8186489445       26.9235509722
  H         0.0282919143        9.2010844029       25.7432395471
  C        -0.9114293207       12.3795846923       28.2551212898
  H         5.0046996789       13.6701053508       24.6671966228
  H         3.9268275612       14.9676395635       24.9946567381
  C         4.8361491712       14.9122324377       23.0255442719
  C         2.4955351548        8.0578982021       19.7218484268
  C         3.0942669803       10.3066456462       19.0335977531
  C        -0.9371198868        9.9645264634       28.2222893134
  C        -1.0805042838       11.2235237329       29.0212233452
  S        -1.1437835242       13.9036138731       29.1443067663
  H         5.3117432315       15.8358179584       23.2527637646
  H         4.0464488334       15.1734234457       22.3637363010
  C         5.8304265637       14.0562467644       22.2311216939
  N         2.0913234880        6.9472060844       20.4443045548
  C         2.8355030077        7.6407840140       18.4160860013
  C         3.3973390019        9.9214947736       17.7234088342
  H         3.2821352128       11.3082949688       19.2902955755
  C         0.1515934023        8.9987766175       28.6726965175
  C        -2.3642120069        9.2383856295       28.1324589899
  C        -1.4665344260       11.6058721349       30.3264610391
  C        -1.4731742795       12.9692407765       30.5247064034
  H         6.7041208851       14.7307584192       22.1891289172
  H         6.1097435245       13.1112992623       22.6457838322
  C         5.1887657546       13.7804151026       20.8195024835
  S         2.2002277911        5.5714548833       19.5939265292
  N         2.7174999027        6.2293687765       18.2749744996
  C         3.2836419461        8.5011417205       17.3742110862
  H         3.8220255805       10.6799320129       17.0370628677
  H         0.3151499567        8.2270648068       27.9475152248
  H        -0.1663740565        8.4625894276       29.5613433040
  C         1.4802888637        9.6403173997       29.0395954079
  H        -2.1833138199        8.5181779018       27.2971210010
  H        -2.5502641562        8.6160970223       29.0174364297
  C        -3.5296970192       10.0805969665       27.6852743963
  H        -1.7142950203       10.8562855346       31.0866451768
  C        -1.6861267562       13.6834378045       31.8097085594
  H         5.0412425640       14.7073505029       20.2778488444
  H         4.3224007340       13.2785367595       20.9274123414
  C         6.0775634603       12.8795873251       19.9496383411
  C         3.5500674635        7.8774566738       16.1230715343
  H         1.9250847729       10.3713846635       28.3815866679
  H         1.1832700352       10.2432034800       29.9112799141
  C         2.5084689288        8.6037391014       29.5274690969
  H        -3.2358737942       10.7433621653       26.8537008832
  H        -3.8434800995       10.7800594662       28.4646172744
  C        -4.7317007578        9.3111608264       27.3209892765
  C        -1.8127837932       15.0759414852       32.0208971885
  C        -2.1090490976       12.8508380360       32.9891958568
  H         6.2336940603       11.9551856330       20.4783488709
  H         5.5354515414       12.6383376626       19.0392460381
  C         7.4540427712       13.3785532404       19.6384391097
  H         3.6590730939        6.7905563732       16.0936934934
  C         3.8719707774        8.3421895029       14.8767081628
  H         2.7384183541        7.9387047488       28.6649397236
  H         2.0954837498        7.9144211424       30.2503412179
  C         3.6770105408        9.4023631374       30.0027789290
  H        -4.5763030693        8.3867089977       26.7754107909
  H        -5.1560990841        9.0933787307       28.2946563200
  C        -5.6672588156       10.3132429422       26.5255665911
  N        -1.4727844228       16.0798586343       31.0673595082
  C        -2.2307543682       15.6431938185       33.1978626456
  C        -2.4836299631       13.4971096250       34.1987768009
  H        -2.0482909489       11.7297415355       32.9095171324
  H         7.1894857441       14.2965127791       19.2097553425
  H         8.0283598202       13.6053091604       20.5323762496
  H         7.9339867627       12.6553438222       18.9840568987
  S         4.1171371981        9.9847920295       14.4347458348
  C         3.8582764501        7.3464539414       13.7805873386
  H         4.2495456493        9.4859044586       29.1786301284
  H         3.3365221548       10.3738685740       30.2768266825
  C         4.5216620428        8.7471127031       31.1612991794
  H        -5.0040610743       10.8139725300       25.8074161326
  H        -6.0387469361       11.1199183363       27.2039310449
  C        -6.7330734569        9.4901399535       25.8114423651
  S        -1.6071387859       17.5594989545       31.7640489246
  N        -2.2636737708       17.0800154696       33.1626388899
  C        -2.5367897330       14.9656627093       34.3584354008
  H        -2.6494955247       12.9792164073       35.1481035459
  C         4.1981424302        9.4326812202       12.7725796419
  N         4.1532493140        8.0525299133       12.6817178075
  O         3.6886615217        6.1382412129       13.8510633151
  H         4.0939610967        9.1248137853       32.1051542453
  H         5.5919808219        9.1036375375       31.1489703305
  C         4.5207578539        7.2334320209       31.1585336601
  H        -6.3897389580        8.8447049060       25.0732087656
  H        -7.1820024538        8.8569011609       26.5708134063
  C        -7.8623997183       10.4263583860       25.2264445803
  C        -2.8866152463       15.7484597898       35.4925070643
  S         4.8947659403       10.2630538625       11.4471960159
  C         4.3721676836        7.2738990045       11.4852594894
  H         3.6603733397        6.8790849683       31.6568638000
  H         4.5138901488        6.9178663375       30.0977516037
  C         5.7645569331        6.5261588318       31.7493786476
  H        -7.6770911136       10.7465044899       24.2233515291
  H        -8.1068541891       11.3736199975       25.8105983878
  C        -9.2302701564        9.6751620572       25.1051068765
  H        -2.3779522161       16.7288544421       35.4379196209
  C        -3.3857885850       15.4744624743       36.7404807692
  H         5.0167723460        7.7764563060       10.7665216982
  H         5.0705017220        6.4510893126       11.6873091525
  C         3.0441151182        6.8123863351       10.7987938678
  H         5.7093495187        5.4493397125       31.7931903613
  H         5.9756009858        6.9731648845       32.7619661962
  C         7.0157314289        6.8463400779       30.8429481922
  H        -9.7459458784       10.1506129435       24.2896982790
  H        -9.1087805134        8.6174639693       24.8919789248
  C       -10.0944231245        9.8312465622       26.3864580908
  S        -3.9951622524       13.9997293995       37.3591892795
  C        -3.3873109720       16.5869763554       37.7003351164
  H         2.6015561633        7.5677894417       10.1276791645
  H         3.2842346667        5.9713706999       10.1441077411
  H         2.2791093603        6.5208529499       11.5151530841
  H         7.4688906930        7.7645584741       31.1988474229
  H         6.8342195513        7.2036911309       29.8555622249
  H         7.8361314743        6.0868336686       30.7163933728
  H       -10.6727949438       10.7055946315       26.2830367457
  H        -9.6739494774        9.8740127070       27.3816054102
  H       -10.7382527533        8.9975371744       26.5367461422
  C        -4.1847571144       14.8461174356       38.8761464824
  N        -3.8253131093       16.1628689110       38.8643582513
  O        -2.9121213286       17.6684262736       37.3846838428
  S        -4.5105052513       14.0270676418       40.4574834257
  C        -3.8519653100       17.0454164170       40.0010785434
  H        -4.3145097278       18.0502333578       39.7387964642
  H        -4.4678597095       16.7642036550       40.7867711441
  C        -2.4515974279       17.2965973784       40.5428415527
  H        -1.8434856643       18.0118006178       39.9370125216
  H        -2.5171662654       17.7848411383       41.5233614598
  H        -1.8944711984       16.3588993743       40.5175920246
  H         7.6469651423       10.9716229868        4.4477562738
  C         8.3761618461       10.2088712937        4.3186291749
  H         7.8193075219        9.2526741505        4.2083006533
  C         9.2278953819       10.1547672495        5.5554634507
  C         9.3058488509       10.4270080735        3.1069264639
  C         8.3716107243       10.4812388118        6.7487805089
  H         9.7396500691        9.2728288782        5.6239601244
  H         9.8826509805       11.0094990494        5.4179239860
  H         8.7411897164       10.4548566202        2.2361937003
  H        10.0732718209        9.6743665860        3.0652148424
  H         9.7597239116       11.4476217974        3.1677040526
  C         7.2593793854        9.4377855889        6.9930804907
  H         8.9215046529       10.6111719176        7.6499630810
  H         7.9287878110       11.4231113566        6.6486097252
  C         6.4393126037        9.7417437056        8.2082090256
  H         7.7052914848        8.4830045244        7.0386949371
  H         6.5286105983        9.3413614766        6.2134165320
  C         5.1752783564       10.5597156958        7.8485962663
  H         7.0031969374       10.2641602544        8.9250036816
  H         6.2079599769        8.7436450219        8.5819728068
  C         3.9308683642        9.7327745853        7.3523203907
  H         4.9513772635       10.9477362919        8.8223198643
  H         5.5389003737       11.3753890426        7.1770698602
  C         2.6758278008       10.5842787314        7.1094877848
  H         3.6690441447        8.9033604807        7.9508815343
  H         4.2467700923        9.1949739473        6.4668246828
  C         3.1130402156       11.8943206707        6.4067230354
  C         2.2642218209       11.3545693044        8.3023328212
  C         1.5321173698        9.9493769067        6.3703487608
  C         2.9578703608       12.9967563084        7.2264388507
  C         3.6300256018       12.2143122006        5.1508988105
  C         2.4108958244       12.6937419748        8.4514153879
  C         1.8186082295       10.7571016827        9.4716103656
  H         1.9276353137        9.6434739229        5.3547663650
  H         1.1324553027        9.0749690029        6.9247159550
  C         0.2690614294       10.8727602702        6.2255057077
  S         3.5511488517       14.4830968131        6.4915213487
  C         3.7893841496       13.6103673187        5.0317828276
  H         3.8580301621       11.5002457523        4.3727487080
  C         2.0799521556       13.3904767527        9.5961736944
  H         1.7268888524        9.7059555697        9.5030239141
  C         1.5015733130       11.3592436065       10.6423505778
  H         0.5485704445       11.7075080082        5.6625766692
  H        -0.1772372846       11.1759340319        7.1881666826
  C        -0.7289301619       10.1828878266        5.2915487382
  C         4.1870656069       14.2486811993        3.7692425539
  C         1.6519242501       12.7338328378       10.7402411262
  H         2.1995583917       14.4429578949        9.7057959919
  C         1.1118959663       10.9614641079       11.8482816029
  H        -1.6474879085       10.7692493968        5.2630285107
  H        -0.9689968759        9.2104317730        5.7016735010
  C        -0.2526845944        9.8427472982        3.8555998761
  C         4.1900404577       15.6613277050        3.5233375346
  C         4.6723802486       13.4335794942        2.6397032271
  C         1.2514088556       13.3951477749       12.0143463493
  C         0.9764993399       12.0387639667       12.7144894599
  S         0.9590474700        9.4264054100       12.6200028208
  H         0.1858624961        8.8279872749        3.8971941078
  H         0.5237890520       10.6156242036        3.5450352752
  C        -1.3563966153       10.0283368978        2.8254029126
  N         3.8007726854       16.6108794573        4.4294100485
  C         4.4468995798       16.1864062094        2.3201813220
  C         4.9822899693       13.9818088701        1.4117653705
  H         4.7587581084       12.3424896537        2.7649751848
  C        -0.0917086776       14.1795281398       12.0185618094
  C         2.3619333678       14.2363947425       12.7624372057
  C         0.6902665825       11.5637108550       13.9938875543
  C         0.6356820871       10.2197231783       14.0821853456
  H        -2.1263051441        9.2478942892        2.8886756868
  H        -1.8814788551       10.9132643004        3.1369515688
  C        -0.9058670350       10.2405865735        1.3756812432
  S         3.9455516783       18.0939146609        3.8384107223
  N         4.4066614898       17.6010590716        2.3224054225
  C         4.7042907094       15.4211570215        1.1744092070
  H         5.3915322169       13.3556778758        0.6382205230
  H         0.0020726579       15.1710683633       11.6232561382
  H        -0.2437798503       14.5235660853       13.0215383184
  C        -1.2883516100       13.3752567213       11.4423710286
  H         2.6976298525       14.9811153079       12.0100141755
  H         1.8576036829       14.8329013625       13.5635342332
  C         3.5618318066       13.5123626761       13.3320030425
  H         0.6065079657       12.2799378711       14.7485601886
  C         0.3601167120        9.4990705698       15.3872431383
  H        -0.0123360665        9.5260013047        1.2094232525
  H        -0.2592183771       11.1316265185        1.1812273271
  C        -2.0630669579        9.9434927666        0.2991006020
  C         4.9952287779       16.0803718130       -0.0923844926
  H        -1.0659299719       12.8662654446       10.5719523285
  H        -1.7103933764       12.7247317743       12.1654905172
  C        -2.4793405424       14.3231192313       11.0948627124
  H         3.8739649197       12.7554439853       12.6333655067
  H         3.1196187546       13.0235788368       14.1995211072
  C         4.6383516819       14.4670104918       13.7789641621
  C         0.3023313900        8.1165239558       15.5500920135
  C         0.0033638341       10.3063306398       16.5798522555
  H        -2.4517287635        8.9607865580        0.4529735267
  H        -2.9428609789       10.6379259950        0.4064640556
  C        -1.4045393867        9.9990336079       -1.1003337660
  H         4.9660091003       17.1170863118       -0.0364286191
  C         5.3178099790       15.5490005610       -1.3748021527
  H        -2.1705901949       15.0942395952       10.4153545964
  H        -2.8037617718       14.8672619539       12.0199702147
  C        -3.5541328416       13.5360494431       10.2991423977
  H         4.6990561524       15.2653620185       13.1372831308
  H         4.2857700967       14.8053133767       14.7169766596
  C         5.9235562655       13.7505038429       13.9968312244
  N         0.5709849851        7.1577130811       14.5667959855
  C        -0.1093694440        7.5353363400       16.7591435641
  C        -0.4586674207        9.7107785440       17.7718128257
  H        -0.0410621969       11.3158349591       16.5371362006
  H        -0.7068710337        9.1734666152       -1.2569309714
  H        -0.7131221238       10.8270556023       -1.2187726829
  H        -2.1492833253       10.0645398158       -1.9408802352
  S         5.8501674906       13.9681032854       -1.8327003956
  C         5.2783834109       16.4525606469       -2.5612611243
  H        -3.1483423204       13.1275110266        9.3339758216
  H        -3.8599602646       12.6612345597       10.9222407031
  C        -4.8433460608       14.2604449522        9.8762965694
  H         6.3862865441       13.6242014044       13.0454863477
  H         5.8164002588       12.7594506230       14.4556709713
  C         6.8998802751       14.4685225848       14.9978636316
  S         0.4702738917        5.6666193172       15.1943053355
  N        -0.0737020831        6.1586564311       16.6451348595
  C        -0.5390146642        8.2207260972       17.9110430708
  H        -0.7247260395       10.3499246097       18.5835993357
  C         5.8548105398       14.4884443443       -3.4640505709
  N         5.6189600611       15.8247913151       -3.6635771768
  O         5.1048665936       17.6609826598       -2.4026564870
  H        -5.4833442368       14.7648203886       10.7055254669
  H        -4.4375138336       15.0749550223        9.2658491464
  C        -5.6429375651       13.2001433208        9.1257139046
  H         6.2444229055       14.7979856069       15.8643541874
  H         7.6037788325       13.6755872668       15.3427827713
  C         7.6553023802       15.6176673680       14.3708195684
  C        -0.8640448449        7.4838765963       19.0987873524
  S         6.5309247926       13.6005453736       -4.8668325519
  C         5.5970969417       16.5559258636       -4.9785670513
  H        -5.1391715534       12.9607448663        8.2923708831
  H        -5.7929720581       12.3075676585        9.6615167080
  C        -6.9767674637       13.7452797895        8.6552554094
  H         7.0966048459       16.1327425048       13.6353964280
  H         8.5682662015       15.3746465570       13.7932716073
  C         7.9445980681       16.7423339447       15.3572198085
  H        -0.3765661668        6.5463149026       19.1983701614
  C        -1.4290782496        7.7366855844       20.3178054442
  H         6.0464403597       16.0099649409       -5.8169648340
  H         6.1882734655       17.4468469413       -4.9171321211
  C         4.1269365933       16.7891630001       -5.3536181072
  H        -7.2917483955       13.2252070027        7.6885209852
  H        -6.7982387677       14.8352005012        8.5217366529
  C        -7.9941747548       13.6573138779        9.7682443806
  H         7.8139502986       16.4610553346       16.3505702117
  H         9.0485629078       16.6857286120       15.4439430889
  C         7.6168150024       18.1782214808       15.0380378786
  S        -2.1252639257        9.2200459547       20.7178979455
  C        -1.4480364334        6.6697927179       21.3600442121
  H         3.9550029614       17.8578731118       -5.3477024196
  H         3.5030341633       16.2710342416       -4.6965409707
  H         3.9631962419       16.5852038180       -6.4172022477
  H        -9.0014311300       13.7898685428        9.3573406247
  H        -7.8262395307       12.8117780870       10.3971587912
  H        -7.8520297304       14.4352343251       10.5354536347
  H         8.5042254780       18.6992452537       14.7233149491
  H         6.8338799611       18.2465547725       14.2114542644
  H         7.3137074824       18.7462993340       15.8307590831
  C        -2.4601432405        8.4702202694       22.3052518838
  N        -2.1505037595        7.1506924082       22.4626996014
  O        -1.0283084842        5.5432428052       21.2448480480
  S        -3.3918162345        9.3325491424       23.5418285108
  C        -2.2865614727        6.4342030280       23.7027465468
  H        -2.3523177425        5.3852547911       23.4487478354
  H        -3.2140035494        6.7491395668       24.1352338005
  C        -1.0656710988        6.7797740001       24.6249184642
  H        -1.4856276303        7.7530238269       25.1680772619
  H        -0.1372403655        6.9906867954       24.1182184193
  H        -0.9467394211        5.9685729957       25.3213653782
