352
i =
  H        -3.6715102257       14.6231854430       16.8045708052
  C        -3.2383028502       13.6550464695       16.6696835256
  H        -4.0340352829       13.1041529819       17.1454969830
  C        -1.8470138913       13.6190136551       17.4192279642
  C        -3.0353678235       13.3445424697       15.1195959302
  C        -2.0283659358       14.0459118517       18.8775669719
  H        -1.5772953124       12.5559881016       17.4190111311
  H        -1.1258459003       14.1797179992       16.9123771972
  H        -2.2458694726       12.6421631556       14.9363962896
  H        -3.9867300732       13.1046811379       14.6781363728
  H        -2.6488166474       14.1684916411       14.6515430237
  C        -2.1007661405       12.8982558476       19.8264681602
  H        -2.9665555609       14.5497311124       18.8506834400
  H        -1.1916598429       14.6880306029       19.2629354880
  C        -2.6852709254       13.1794053205       21.2495180083
  H        -2.8396549225       12.1940355477       19.3680967064
  H        -1.1306066979       12.4021830970       19.8667556209
  C        -1.7889668538       12.8722846819       22.4036134905
  H        -3.6637191912       12.7562533542       21.3752271439
  H        -2.7656870956       14.2659658447       21.1982725649
  C        -0.5208224747       13.7052757082       22.5407504062
  H        -2.4304434396       13.0033336232       23.2551896691
  H        -1.5403612588       11.8253942555       22.3924348596
  C         0.6107599816       12.9096216196       23.2594502295
  H        -0.2148286506       14.0065876477       21.5678236251
  H        -0.6609812736       14.5947158836       23.0283273223
  C         1.0085346712       11.5962903984       22.6735892378
  C         0.2114348738       12.2748049738       24.5231290543
  C         1.8452635621       13.8332940310       23.3687836526
  C         0.9271665307       10.5408346138       23.5006125876
  C         1.4571357804       11.2082044498       21.4231745892
  C         0.4358165792       10.9472990263       24.7083004226
  C        -0.2211618443       12.9831680187       25.6729277773
  H         2.2011101940       14.2450952114       22.3921495190
  H         1.7838162282       14.7781018651       23.9041380203
  C         3.1024176393       13.1591659031       23.9345303063
  S         1.4411217832        9.0621330270       22.8606256232
  C         1.7570126623        9.8470133312       21.3871371985
  H         1.5563094559       11.9263698141       20.6646800644
  C         0.0869508001       10.3189782419       25.8659381664
  H        -0.1984617355       14.0487020397       25.6243349607
  C        -0.4949584766       12.3212239250       26.8440963257
  H         3.2584017607       12.2566414930       23.4637269647
  H         2.9170294985       12.8517618160       24.9322260645
  C         4.4907825118       13.8153561192       23.8209102992
  C         2.1547459413        9.1270144635       20.1127616668
  C        -0.3571615297       10.9864134091       27.0092596017
  H         0.2881247790        9.1962410016       26.0170973283
  C        -0.8196405765       12.7298277102       28.1068483439
  H         5.2030123464       13.1740282735       24.2887684933
  H         4.5105806034       14.7887849038       24.3665914294
  C         4.8774203075       13.9596492404       22.3283848097
  C         2.0699615936        7.6985981537       19.9626552952
  C         2.7393635184        9.9090548148       19.0084290350
  C        -0.7488592220       10.3365301359       28.3204409079
  C        -0.9617157366       11.7024719120       28.9785826466
  S        -1.0413183777       14.2443345216       28.7381193283
  H         5.2685969723       14.9654462366       22.1313380114
  H         4.1283257743       13.7171956605       21.5631967898
  C         5.9338217888       13.0360110078       21.8532104104
  N         1.8407163888        6.8259537844       20.9352757848
  C         2.3845742979        7.1567335500       18.7362405124
  C         3.1144927979        9.3056965651       17.8433521363
  H         2.9376120850       10.9440980465       18.9981583362
  C         0.3007782062        9.4467843910       29.0142454584
  C        -2.1997970989        9.6467488789       28.1199820961
  C        -1.3015885004       12.1550274336       30.2954677961
  C        -1.3011426132       13.5362348872       30.2716826339
  H         6.8741753377       13.2318360111       22.3384099856
  H         5.6645097601       11.9437160195       22.0235571322
  C         6.1134927503       13.1263132747       20.3477981212
  S         1.9181620924        5.2837034632       20.3085701197
  N         2.2134790326        5.7765465877       18.7929169483
  C         2.8745632492        7.8552401449       17.6069725906
  H         3.2922225421        9.9732273155       17.0331457982
  H         0.3860949216        8.7245851631       28.1899456170
  H        -0.1938642803        9.0417985471       29.9678787761
  C         1.5892900488       10.2041479180       29.2607295310
  H        -2.1406152642        8.7134103445       27.6554241908
  H        -2.5825732813        9.3251482413       29.1145031853
  C        -3.2810850108       10.4444318370       27.5047927692
  H        -1.3720212624       11.4592879122       31.1172274981
  C        -1.5843905290       14.3114149604       31.5391862336
  H         5.8029141550       14.1288588032       19.9842452095
  H         5.4390093624       12.5179986396       19.7665429526
  C         7.6038746105       12.8314882188       19.9471475875
  C         3.1462515592        7.1942326154       16.3988463003
  H         1.8947361803       10.7939461986       28.3857484756
  H         1.4340979398       11.0343224453       29.9421928126
  C         2.7989044081        9.3965563045       29.7086615933
  H        -3.0157523824       10.6269421833       26.4951633816
  H        -3.3627999290       11.4876309597       27.8900893200
  C        -4.6228971124        9.7507825819       27.6772718961
  C        -1.5597649094       15.6966338644       31.6341321605
  C        -1.8321657344       13.6162745409       32.8189887211
  H         8.1875120637       13.5635771884       20.4770580596
  H         7.9888302440       11.8233329102       20.1792583236
  C         7.7340599230       13.0367191269       18.4311639503
  H         3.2151171756        6.1006829677       16.5295392739
  C         3.4151198283        7.6182789076       15.0866043120
  H         3.2550682385        9.0635404480       28.7981454438
  H         2.3927607542        8.6139882604       30.2651692655
  C         3.7053339444       10.1636125287       30.6782825287
  H        -4.6886924926        8.7719999446       27.1952775499
  H        -4.7800494291        9.4708189369       28.7109210733
  C        -5.8555112554       10.5995949929       27.2920420938
  N        -1.1908864056       16.5785279384       30.6256441680
  C        -1.9480890025       16.4188161316       32.7422094500
  C        -2.2595524694       14.2922150976       33.9663663536
  H        -1.7283211887       12.5029518500       32.8849202858
  H         7.3496301174       14.0197159021       18.1891777036
  H         8.7446058663       12.9630563491       18.1772612020
  H         7.0841858151       12.3041246255       17.9564389281
  S         3.6217345112        9.2157714232       14.5515098438
  C         3.4485950324        6.6183812033       14.0135998473
  H         3.9093886331       11.1733927297       30.2035526258
  H         3.1882656943       10.3805785817       31.6149697017
  C         5.0769826008        9.5021956840       30.9590488010
  H        -5.5522946694       11.5002257835       26.7562271778
  H        -6.2813013260       10.9931804861       28.2298801288
  C        -6.9683540777        9.8141225016       26.5798089150
  S        -1.6139736511       18.0956402381       31.0192147234
  N        -2.0165513024       17.7782956019       32.5609662308
  C        -2.3367904377       15.7527614516       33.9372851290
  H        -2.4827814693       13.7865402423       34.8449753888
  C         3.8360437511        8.5574894994       12.9158634240
  N         3.7077101631        7.2358734918       12.8297357622
  O         3.1933678974        5.4248783113       14.1279383916
  H         5.5052807757        9.9461384538       31.8694635047
  H         5.8258499473        9.7214038221       30.2230652265
  C         4.9744283886        7.9531140589       31.1764347283
  H        -6.6173015417        9.0224799891       26.0281332890
  H        -7.6568218680        9.2733732693       27.2939591352
  C        -7.6004141634       10.6915729032       25.6177091128
  C        -2.4638324489       16.5451730172       35.1679669211
  S         4.3667777424        9.4828533658       11.4670749961
  C         3.6530295784        6.3980837175       11.6301833849
  H         4.2778953370        7.8339096884       32.0483323863
  H         4.5295141705        7.3837990143       30.3598665280
  C         6.3441198495        7.3227498774       31.4302924839
  H        -6.9987411111       11.0419488544       24.8427635763
  H        -8.0376457180       11.6600990517       26.0688405209
  C        -8.7041666837       10.0360591940       24.8124803441
  H        -1.9427485164       17.5640499439       35.0891122450
  C        -3.0252475450       16.2806947649       36.3878754989
  H         4.5083048513        6.5540873644       11.0026809421
  H         3.7741739542        5.3342809386       11.8964096734
  C         2.4770530828        6.6994741853       10.7163565110
  H         6.4284556444        6.5703075738       32.2223407475
  H         6.9509753786        8.1839700616       31.7825785562
  C         6.8490023278        6.7226525531       30.0998356739
  H        -8.6865820183       10.4257402863       23.8319372623
  H        -8.5567387171        8.9723730669       24.6533982887
  C       -10.0706784596       10.1758869848       25.5782145374
  S        -3.7601284580       14.8216190966       36.8831191075
  C        -3.1693171616       17.4013105921       37.3275862067
  H         2.6244254192        7.7108226405       10.3864536231
  H         2.5921242322        6.0362215709        9.8045588588
  H         1.4382363143        6.5394007805       10.9650958265
  H         7.8994963914        6.4582225248       30.2542555107
  H         6.7987906470        7.4596606343       29.2527644725
  H         6.2047176893        5.8682892680       29.7131237959
  H       -10.0016377462        9.6371779250       26.5586377470
  H       -10.7466071220        9.6089614363       24.9158208516
  H       -10.3805827447       11.2255832151       25.7054160947
  C        -4.0866489688       15.6747608692       38.3993470597
  N        -3.8733519133       16.9628789438       38.3779207894
  O        -2.7092170486       18.4901357088       37.1533837035
  S        -4.8914281231       14.9569218302       39.8043292371
  C        -3.9550777622       17.8456323641       39.5695376452
  H        -3.9460240334       18.9064752705       39.2538369447
  H        -4.8858231673       17.7861109937       40.1439766170
  C        -2.7736176370       17.6266097488       40.5173896192
  H        -1.8201499537       17.4417385571       39.9964194909
  H        -2.5804438057       18.5467393301       41.1589291726
  H        -2.9478959512       16.7552433063       41.1547496933
  H         6.7451411562       11.0429847513        3.1609491581
  C         7.6118792278       10.3942216019        3.2244120517
  H         7.0991408317        9.4447181085        3.5369951770
  C         8.4991434425       10.8378942365        4.3636326914
  C         8.2632909586       10.2844607437        1.8802283756
  C         7.7711057054       10.9166774433        5.7347575533
  H         9.2611382016       10.0600793050        4.2748349353
  H         9.0948031773       11.7826898726        4.2357530088
  H         7.4777295463       10.3210848381        1.0600040676
  H         8.8832717831        9.4354042486        1.9897478893
  H         8.8881236167       11.1576326652        1.6686482427
  C         7.2979314907        9.5341454645        6.2628558902
  H         8.3600969440       11.4301928810        6.4599794076
  H         6.9155402473       11.5872020467        5.7317773507
  C         6.8136888362        9.6241440828        7.7585483771
  H         8.0920324624        8.8005601628        6.0766147210
  H         6.4521122315        9.2550456476        5.7078516384
  C         5.3938368945       10.4347684758        7.9496873506
  H         7.5804169794       10.1069835953        8.3957528852
  H         6.7329735187        8.6180049861        8.1613968012
  C         4.1014226138        9.6698903140        7.5058386661
  H         5.2976285000       10.8290578038        8.9881015609
  H         5.4943544361       11.2751790960        7.2092484789
  C         2.8098091704       10.6063935136        7.3923139283
  H         3.8924860462        8.9106891720        8.2642387883
  H         4.3644542754        9.2717546146        6.5106965296
  C         3.1665660584       11.9458257525        6.6628802396
  C         2.3382603998       11.3671590821        8.5948515928
  C         1.5977057642        9.8061773464        6.6669491737
  C         2.8414188659       13.0739167711        7.4028996480
  C         3.5504723878       12.3309191459        5.3105090088
  C         2.2799092387       12.7025284836        8.6211886161
  C         1.9601296833       10.7861790204        9.8321615750
  H         2.0169569942        9.3439688331        5.8697745972
  H         1.1888510979        8.9710553369        7.2239318971
  C         0.4605403173       10.6360804660        6.2050500170
  S         3.1645855334       14.5661530770        6.6293282688
  C         3.6594562628       13.7039246208        5.1791716737
  H         3.5863331771       11.5927071456        4.5098939208
  C         1.8920607324       13.3750120780        9.7559794119
  H         2.0027113838        9.7431692959        9.9107177524
  C         1.5646119169       11.4828576675       10.9536942224
  H         0.8117561167       11.5758628270        5.8597468812
  H        -0.2036969065       10.8332374191        7.0559802335
  C        -0.4703260867       10.1845690810        5.1520641372
  C         4.1359254578       14.4409320019        4.0248189701
  C         1.5411337104       12.8206390507       11.0133840895
  H         2.0008564639       14.4516068153        9.6969823944
  C         1.1675269742       11.0702904442       12.1827480161
  H        -1.2669872100       10.8695501288        5.1569679285
  H        -0.6886319797        9.1147436694        5.2437969278
  C         0.1706238202       10.2129526594        3.7667489830
  C         4.1905577059       15.9102234108        3.8440885306
  C         4.4288565557       13.6936702081        2.7712883308
  C         1.1630017552       13.4957471611       12.2497857308
  C         0.9539823963       12.1221114765       12.9539231760
  S         0.8024923363        9.5607643568       12.8096476100
  H         1.0781613741        9.5831351124        3.8742392970
  H         0.5719671213       11.2156794896        3.5697991543
  C        -0.7644754217        9.7793455776        2.7304711364
  N         3.9127155034       16.8405427772        4.8237695822
  C         4.4197289311       16.5193011229        2.6351051558
  C         4.7608300933       14.3524747075        1.6012178490
  H         4.2292823507       12.6903012371        2.7643567552
  C        -0.2087644472       14.1800103245       12.1284247067
  C         2.2888387261       14.2176318168       12.9795461216
  C         0.5590762165       11.6689073987       14.2551783992
  C         0.4729716931       10.3499882979       14.3335050503
  H        -0.9373257644        8.7321895304        2.8219245387
  H        -1.7613404108       10.1882330709        2.8929621887
  C        -0.2856196764       10.0204225718        1.2759071215
  S         3.7250772099       18.3374291441        4.1585686447
  N         4.1499580424       17.8790371666        2.6401509944
  C         4.7057358031       15.8456678393        1.4598759341
  H         4.8156216811       13.8001939336        0.6832079483
  H         0.0316218770       15.0530034397       11.4858265340
  H        -0.4865546363       14.4896984395       13.1324405212
  C        -1.3331284107       13.2689255776       11.5086916239
  H         2.7619179315       14.9024023717       12.3086364619
  H         1.8806686117       14.8527852612       13.6331010495
  C         3.3407315345       13.3339833740       13.6945690003
  H         0.3646756515       12.4279964011       15.0042890523
  C         0.1399615366        9.5600504682       15.6170005213
  H         0.5026470806        9.3899133256        0.9398782843
  H        -0.0556507961       11.1002119106        1.3442414331
  C        -1.4258680722        9.8438826188        0.2070689970
  C         4.9512011686       16.6078821645        0.2351684606
  H        -1.0055976223       12.7482409309       10.6546536549
  H        -1.5741099148       12.5225036356       12.2745763258
  C        -2.5278578738       14.0011223258       11.0686465094
  H         3.7092606146       12.5234188489       13.0042216345
  H         2.9498142792       12.7520860528       14.5380314209
  C         4.5351533610       14.1293649473       14.1375792659
  C         0.0357057355        8.1744311665       15.6735713546
  C        -0.1797110781       10.2585639063       16.8743476912
  H        -1.6047642502        8.8235275349        0.0792725453
  H        -2.3427911582       10.2715501868        0.5636855790
  C        -1.1115106354       10.3809264131       -1.1167821661
  H         4.6155558284       17.6021522035        0.2315380864
  C         5.1874599238       16.1541957439       -1.0648266708
  H        -2.3587704793       14.9049350465       10.5064074372
  H        -2.8981338492       14.4174803097       12.0504423543
  C        -3.6533049238       13.1356036136       10.4863025461
  H         4.7949507089       14.9049785262       13.4058543053
  H         4.2382023036       14.6327611290       15.0233835235
  C         5.6713106966       13.2135106877       14.5502173981
  N         0.2927134992        7.3055022137       14.6017100228
  C        -0.2214987503        7.4894527320       16.8086601466
  C        -0.5176169663        9.4980230650       18.0062766493
  H        -0.1074639240       11.3207408583       16.9542181015
  H        -1.9816119131       10.2476001986       -1.6839155370
  H        -0.2501087954        9.8431543034       -1.6854488914
  H        -0.7712698861       11.3862556944       -0.9460576402
  S         5.5819858137       14.6274868146       -1.6178522430
  C         5.1079286394       17.1603998833       -2.1219933657
  H        -3.6490373831       13.1737544742        9.3930903993
  H        -3.4103414749       12.0595077863       10.7154387321
  C        -5.0127515862       13.5919789525       11.0564146589
  H         5.4607579799       12.1917700656       14.1578230269
  H         5.5588838353       12.9718667676       15.6421097468
  C         7.1668271075       13.6935221238       14.3614137970
  S         0.2105933939        5.8035706331       15.0270907361
  N        -0.1522039481        6.0738988414       16.6350181997
  C        -0.5760717029        8.0387402672       18.0724776349
  H        -0.6310571147       10.0987192055       18.9176812557
  C         5.7341210161       15.2857308486       -3.2387338130
  N         5.5405531080       16.6245791624       -3.3437946710
  O         4.8171481307       18.3414028983       -1.9962796218
  H        -5.0409686248       13.3153183990       12.1297489275
  H        -5.1400260164       14.6541644440       10.9333438019
  C        -6.0860894186       12.8399899736       10.3339138412
  H         7.7307141719       13.2730993958       15.1759660634
  H         7.5576072146       13.1208801953       13.4734005898
  C         7.5802659628       15.1859461047       14.1837216023
  C        -1.0083023247        7.2136741594       19.2093246953
  S         6.2620743074       14.4314862099       -4.7109632652
  C         5.4981686181       17.3533797288       -4.6433113241
  H        -5.8482589229       11.8127436678       10.3645341273
  H        -7.0326370140       12.8169365650       10.9163904311
  C        -6.3834276140       13.3082501782        8.8701389454
  H         7.0977608107       15.5024009631       13.2106742951
  H         8.6509386707       15.1773170633       13.9023672866
  C         7.2387800677       16.0725608537       15.3631332212
  H        -0.7447402566        6.2002715591       19.1185413242
  C        -1.5780212961        7.4998824697       20.4179746902
  H         6.2132750852       17.0298303898       -5.4150371128
  H         5.7492214318       18.4644472601       -4.6040950412
  C         4.0532998730       17.2892381431       -5.0847170917
  H        -6.2138983791       12.6382329681        8.0553976077
  H        -5.6860563239       14.1041536014        8.7383175755
  C        -7.8035954652       13.7592974806        8.6994907774
  H         6.1969186611       15.9639231427       15.7372543226
  H         7.8755032852       15.7640363259       16.1749755031
  C         7.6691578282       17.5316506952       15.0977484384
  S        -2.1841112387        8.9098512816       20.9786509901
  C        -1.5577922805        6.3203133400       21.3859550267
  H         3.4501415977       16.6090841430       -4.6201922431
  H         3.8685148771       17.2873531859       -6.1380704736
  H         3.5606732659       18.1772831387       -4.6377920653
  H        -8.4331317593       12.8780480505        8.8479407302
  H        -7.9348189497       14.4932304147        9.5377441045
  H        -7.9756052646       14.0686564696        7.7420501056
  H         8.6822310199       17.5497369026       14.6224593145
  H         6.9558093838       18.1435670251       14.4996148354
  H         7.8316466247       18.0940155301       15.9744451851
  C        -2.4232986819        8.1459541984       22.4770700641
  N        -2.0398696296        6.8096849557       22.5019309001
  O        -1.0323954687        5.2185623614       21.1914648186
  S        -2.8349378109        8.9539354821       24.0328856626
  C        -2.0164861930        5.9461404877       23.6536918905
  H        -2.1652649619        4.9390573175       23.3561890998
  H        -2.9416862313        6.1373947981       24.2182864363
  C        -0.7795003539        6.2141430236       24.4360656050
  H         0.0971863246        6.3524783564       23.7517375480
  H        -0.4380191996        5.4172877613       25.0835623166
  H        -0.9501019127        7.0887404091       25.0152092152
