352
i =
  H        -2.5527138206       15.0081774842       16.6327301608
  C        -3.1623514500       14.1604575312       17.0387993841
  H        -3.9193781743       14.6222990919       17.6698076764
  C        -2.0137417893       13.3061611938       17.6315281332
  C        -3.7634722632       13.6265799710       15.7002954493
  C        -1.7706171529       13.4807752176       19.1283247344
  H        -2.2065323984       12.2307903513       17.4004126412
  H        -1.1252888640       13.6214470757       17.0889486336
  H        -4.1382320187       12.5918069204       15.7209225681
  H        -4.4703158361       14.3405901988       15.2430148083
  H        -2.9812266710       13.4971042744       14.9440961898
  C        -3.0164006574       13.1116389903       19.9944055558
  H        -1.5338851097       14.5200946822       19.1327102495
  H        -0.8720833456       12.9747747003       19.5120313407
  C        -2.8215755996       13.5997604302       21.4515582843
  H        -3.9072509448       13.3988009382       19.5062407756
  H        -3.1030904913       11.9986976800       20.0248060863
  C        -1.7554672577       12.9058847838       22.3518305948
  H        -3.8579492002       13.5754131765       21.8598084836
  H        -2.5953523317       14.6705909195       21.3659048887
  C        -0.5643727115       13.8607197180       22.6479717796
  H        -2.1906910280       12.5500641859       23.3169039104
  H        -1.3624453323       12.0441993705       21.8766633454
  C         0.6316826776       13.2517598576       23.3038679658
  H        -0.2456490632       14.4819518459       21.7908669418
  H        -0.9146660721       14.5539891311       23.4136869134
  C         1.0539755112       11.8924881017       22.6089075770
  C         0.2138584377       12.4534839939       24.5321726864
  C         1.9589745390       14.0799391627       23.5456942831
  C         0.7593131853       10.7412914663       23.3093494204
  C         1.4881684063       11.6113390873       21.3315390921
  C         0.2565660082       11.0834770649       24.5156699871
  C        -0.2213810320       13.0779340659       25.6563433502
  H         2.2976417578       14.4145403541       22.5628376133
  H         1.7708523589       14.9855205774       24.0909932769
  C         3.1411377960       13.2562978195       24.1212704135
  S         1.1872046697        9.3128144913       22.5165900856
  C         1.6117231995       10.2392532467       21.1104421082
  H         1.8250704439       12.3639753305       20.6491882052
  C         0.0567136138       10.4060563183       25.6670000398
  H        -0.3830556174       14.1507706276       25.6630586122
  C        -0.5328695141       12.3791985443       26.8483582963
  H         3.4436620492       12.4039361287       23.5036317934
  H         2.8205554860       12.7398863589       24.9727114354
  C         4.4944459796       13.9194301975       24.4050351351
  C         2.1733834983        9.6414949081       19.8344015529
  C        -0.4310255399       11.0167693063       26.8429419041
  H         0.1202793607        9.2938026645       25.5821247408
  C        -1.0010125112       12.6285431136       28.0971865689
  H         5.0830916358       13.0894514269       24.8088599301
  H         4.4584444986       14.7110573709       25.2029398375
  C         5.3108107804       14.5835180683       23.2466262598
  C         2.4221421001        8.2436499660       19.7384027759
  C         2.4075214321       10.4538054297       18.5955705369
  C        -0.7791804444       10.2199016229       28.0427856188
  C        -1.1170902918       11.4728486295       28.8298091849
  S        -1.3391433646       14.0765676049       28.9210387327
  H         6.2052365390       15.1817396489       23.5323827354
  H         4.5798025378       15.3106960864       22.9125053412
  C         5.6210509898       13.5331233723       22.1659381777
  N         2.2077327563        7.2303235707       20.7092013027
  C         2.7660849898        7.6774043221       18.4987043085
  C         2.8512021567        9.8725766240       17.4436000430
  H         2.4370584863       11.5757992262       18.5921393131
  C         0.3850425739        9.4290142620       28.5750917679
  C        -1.9456931566        9.2754701370       27.8422247486
  C        -1.5176115068       11.8133825625       30.1452779420
  C        -1.5187982553       13.1616700847       30.3216090402
  H         6.6932624596       13.5817134199       21.9056884145
  H         5.4906892751       12.5464896251       22.5474133295
  C         4.9123060740       13.8378936791       20.8642846940
  S         2.5627457290        5.7867872602       20.1340113025
  N         2.9137338535        6.2762240290       18.6101898047
  C         2.9383016213        8.3517689627       17.3100049435
  H         3.0371774209       10.6324193592       16.7644026485
  H         0.8045796388        8.6806339402       27.8629136246
  H         0.0126761193        8.8793697830       29.4803803281
  C         1.6007199708       10.2329777709       29.1040742554
  H        -1.6825884527        8.4238680482       27.2185895774
  H        -2.3377573718        8.7579551161       28.7558576838
  C        -3.1513724771       10.0239030774       27.2300834283
  H        -1.6214818752       11.0317745270       30.8705526640
  C        -1.8609894849       13.8233658475       31.5594442228
  H         5.1310124772       14.9189636883       20.5112491348
  H         3.8455732173       13.7548108664       21.0520805435
  C         5.1371756595       12.8331731701       19.6947211181
  C         3.1314647129        7.5958380728       16.1398770487
  H         2.2247175310       10.7518070684       28.3943847829
  H         1.1723220624       10.9607385269       29.8397550135
  C         2.4601686088        9.2290173799       29.8574355345
  H        -2.9703490927       10.2896095415       26.2088671917
  H        -3.3279795969       10.9243746628       27.7683772620
  C        -4.5375551136        9.2683645442       27.2661788824
  C        -2.0613950558       15.2330169407       31.7487630964
  C        -2.0433864800       12.9630575087       32.7570096233
  H         4.9534211105       11.8722966497       20.1448193841
  H         4.3050182420       12.8971829843       18.9803678766
  C         6.4817247374       12.9612897901       19.0307319338
  H         2.8108318307        6.5402506261       16.1993788040
  C         3.4381557955        8.0374740961       14.8627096153
  H         2.5598269081        8.3905883550       29.1322675201
  H         1.9433940883        8.8742939481       30.7189578850
  C         3.7894563115        9.8411719763       30.2920413020
  H        -4.7118347523        8.3380362918       26.6446964357
  H        -4.8575348900        8.8606429251       28.2863138670
  C        -5.5394160006       10.2945773403       26.7901177649
  N        -1.8115590712       16.1896128743       30.7916951070
  C        -2.2239236136       15.7771722247       32.9910077554
  C        -2.2354472327       13.5205464163       33.9918224676
  H        -2.0773330692       11.9413334196       32.7041546592
  H         6.7882167775       13.9846917642       19.1665800133
  H         7.3616178323       12.3419682193       19.3211743349
  H         6.3477854625       12.7936295258       17.9283664591
  S         3.8971204269        9.6480362404       14.4859162787
  C         3.4822409148        7.1313222775       13.7109295116
  H         4.3539785169       10.1201328095       29.4188195702
  H         3.6149467483       10.7708652948       31.0072692974
  C         4.6940798638        8.8326909496       30.9565810338
  H        -5.0513607887       11.0519275732       26.2332953069
  H        -5.8386003351       10.8981889017       27.6358415773
  C        -6.8740079602        9.7761775001       26.2629491571
  S        -2.0725532399       17.7085194861       31.4651719528
  N        -2.3181887718       17.1805099328       32.9696819473
  C        -2.2769343654       15.0176236929       34.1920573934
  H        -2.3169300985       12.8279433977       34.7886083882
  C         4.0445485844        9.1555709213       12.8494708709
  N         4.0697195744        7.7861053653       12.6564702938
  O         3.1811456331        5.8912659468       13.6982549976
  H         4.4897529699        8.7769395147       32.0156625378
  H         5.7071308071        9.2622403984       30.9496172951
  C         4.7174862083        7.4347812736       30.2696268955
  H        -6.8391194316        8.9133577287       25.5980895896
  H        -7.2957404255        9.4547355127       27.2655029765
  C        -7.8888231527       10.8086790245       25.6909431757
  C        -2.4149954857       15.7791261123       35.3969888071
  S         4.5627456668       10.1485509443       11.5199978607
  C         4.3288815167        7.2014865721       11.3030019899
  H         3.8037921668        6.9988730335       30.4651744913
  H         4.8973677340        7.4668758655       29.1859605939
  C         5.6596674967        6.4388107892       30.9569759570
  H        -7.6040425442       11.2015985777       24.7775117168
  H        -7.7905600726       11.6144348320       26.3630074325
  C        -9.2571032133       10.1807871913       25.4450017578
  H        -2.5046398424       16.8446238015       35.2809098214
  C        -2.9333618579       15.3427761833       36.6237844318
  H         4.9661306599        7.7944207310       10.6601499238
  H         4.7823946272        6.2136596832       11.3457200061
  C         2.9675672131        7.0966335739       10.6020454036
  H         5.2526248915        5.4822880425       30.9616878318
  H         5.7683570662        6.6591585269       32.0100429818
  C         7.0399943787        6.4226127565       30.3689135739
  H        -9.7872481448       10.5060335717       24.5478250819
  H        -9.0790951116        9.1108660938       25.3501962649
  C       -10.1018446615       10.4000433273       26.6670052104
  S        -3.3409452276       13.7531017427       37.0177856491
  C        -3.0467460821       16.3367328074       37.7968802808
  H         2.5527655572        8.0866761359       10.6930073474
  H         3.1481308451        6.8995900222        9.5531984558
  H         2.2640887204        6.4048831439       11.0683972340
  H         7.2883258981        7.3219485179       29.8581041117
  H         7.0972408514        5.6564438965       29.6068631798
  H         7.7536229681        6.2838088510       31.2808496222
  H       -10.7026720015       11.3121998865       26.7667657744
  H        -9.4064037755       10.2697803945       27.5168659538
  H       -10.7187914992        9.4823645573       26.8019734884
  C        -3.8676245424       14.3940563137       38.5829824082
  N        -3.7296426177       15.7504140909       38.7676631389
  O        -2.7890447237       17.4992582397       37.7417163961
  S        -4.7887501468       13.4322099524       39.7076486875
  C        -4.1800104196       16.4297365253       39.9857974280
  H        -4.2597390435       17.5548031234       39.8691071860
  H        -5.0949738242       16.0403961630       40.3082463499
  C        -3.0067182307       16.5554041165       41.0245884472
  H        -2.2279921312       17.2432918924       40.7102512344
  H        -3.2561355835       16.9261755666       41.9989995697
  H        -2.4639211320       15.6315989823       41.0809957247
  H         7.4661822375       10.5849295827        4.5106212257
  C         8.3056090814        9.9613733063        4.4622226012
  H         7.8776494341        8.9744523634        4.2327247782
  C         9.1324632141       10.1310558712        5.7006189286
  C         9.0349703970       10.4414149972        3.1968126701
  C         8.3487443560       10.3379192317        6.9806407052
  H         9.8454225315        9.3471932952        5.7932553880
  H         9.7366486752       11.0778634316        5.6502611613
  H         8.3586100850       10.7231227763        2.4255774683
  H         9.6902247830        9.6568280772        2.8369803717
  H         9.7222617823       11.3055905340        3.4355182625
  C         7.4795305807        9.1147001061        7.3773678662
  H         9.0295721295       10.5999914877        7.8657275824
  H         7.7361919576       11.2141413488        6.9247963483
  C         6.5181044072        9.4241772509        8.5008424180
  H         8.0929919012        8.2371756274        7.3984375791
  H         6.8296972531        8.8061215603        6.5418062234
  C         5.3853569623       10.3786300998        7.9884393621
  H         7.0910977183        9.8863382200        9.3136466434
  H         6.1154354701        8.4734952467        8.9661088912
  C         4.2339170720        9.6966485352        7.3028220111
  H         4.9883289760       10.7522190177        8.8940150496
  H         5.7814806490       11.1855686037        7.4030238637
  C         3.0171517485       10.7225012696        7.1142117945
  H         3.9148819237        8.8251089485        7.8489278290
  H         4.5939828897        9.3181239289        6.3217120796
  C         3.3062259554       12.0635451236        6.4372458564
  C         2.5112066358       11.4054971437        8.3355203603
  C         1.8866617516       10.0744647102        6.2660471970
  C         3.0207944526       13.1910365747        7.2296932140
  C         3.7623138906       12.4372690801        5.1390399867
  C         2.5086212628       12.8023884766        8.4802410308
  C         2.0416167945       10.7200006357        9.4352816624
  H         2.2489702124       10.0450228448        5.2469956395
  H         1.7727838437        9.0819593014        6.6437876777
  C         0.5295262259       10.8358519488        6.4337313691
  S         3.4248166608       14.7192357918        6.3749587875
  C         3.8125685254       13.7607282536        5.0327027164
  H         3.9738484700       11.6739178894        4.4344275366
  C         2.1590919424       13.3638946591        9.6071811845
  H         2.0345153527        9.6530154515        9.4071130980
  C         1.6604622961       11.3495021866       10.5921781643
  H         0.7151926878       11.8734181732        6.2575027236
  H         0.2408041937       10.7120528504        7.4533727451
  C        -0.5429502674       10.3587933682        5.4320238464
  C         4.2369362254       14.4567017591        3.7883280080
  C         1.6840130180       12.6944707679       10.7618738855
  H         2.2364250531       14.4664720562        9.5664433445
  C         1.1941488097       10.9455687015       11.8174532705
  H        -1.3248716128       11.0658832759        5.5064151372
  H        -0.9445850069        9.4275351658        5.7042977584
  C        -0.0324447149       10.2685924360        3.9934031567
  C         4.2525424731       15.8660346498        3.5325568924
  C         4.6685986698       13.5825726969        2.6297648016
  C         1.2850280522       13.3949551866       12.0007890916
  C         1.0723939653       12.0481785779       12.6757930445
  S         0.7658975698        9.4648084561       12.5888947975
  H         0.5521680913        9.4112838152        3.8429367622
  H         0.6044424712       11.1211933316        3.8548728778
  C        -1.2464121884       10.2782703975        3.0313728553
  N         3.9889693336       16.8644930698        4.4725428548
  C         4.5688125575       16.3849359555        2.2217189388
  C         5.0637819108       14.1272392550        1.3958191337
  H         4.7211141784       12.5575095831        2.7227369461
  C        -0.0812004981       14.1502186118       11.9062084966
  C         2.4038961782       14.1995501956       12.5986908776
  C         0.6898425169       11.6546379726       13.9954640414
  C         0.5091893289       10.2957737405       14.0678466329
  H        -1.9114159114        9.3987209418        3.2230271831
  H        -1.8345550888       11.1469728291        3.2530536594
  C        -0.7849782788       10.2355721557        1.6465827039
  S         4.0823725137       18.3220664625        3.7150294394
  N         4.3273791591       17.7324890376        2.2354702039
  C         4.9487904908       15.6014258201        1.1231254827
  H         5.3848253102       13.4586485069        0.6875535579
  H         0.0826023660       15.1309801050       11.5069227669
  H        -0.4258109092       14.5062263425       12.8684358627
  C        -1.1843581900       13.2976354926       11.2410363918
  H         2.8141027699       15.0100355916       12.0381834570
  H         1.9839319036       14.6469128181       13.4570443723
  C         3.5401857369       13.3623078452       13.2188823349
  H         0.5150058170       12.4286371576       14.7717199556
  C         0.0734355357        9.4931860251       15.2821748597
  H         0.1231997638        9.5076684093        1.6644036322
  H        -0.2671271236       11.1555694481        1.4465602731
  C        -1.8276196063        9.6060141950        0.6908286378
  C         5.1686824171       16.1779371472       -0.1884140291
  H        -0.8701204553       13.0279724452       10.2213781599
  H        -1.4298360934       12.3767952793       11.8361969768
  C        -2.4991712265       14.1964182538       10.9707093331
  H         4.1042530699       12.7030226449       12.6062229575
  H         3.2051393614       12.6398627672       14.0013716933
  C         4.6748235528       14.2813693657       13.7372780231
  C         0.0029326680        8.0599482089       15.4292550185
  C        -0.2961003296       10.2618792611       16.4956751174
  H        -1.6256207740        8.5931678498        0.7804666087
  H        -2.8340231082        9.7002968363        1.1254294457
  C        -1.7081434176       10.0927188659       -0.8081268013
  H         4.8619794766       17.1974190430       -0.1885690903
  C         5.4537029153       15.6670106677       -1.4443446564
  H        -2.3264232922       14.9831644927       10.2598123909
  H        -2.7325983584       14.7205969258       11.8970600040
  C        -3.5856135518       13.1773895685       10.5265309450
  H         5.0192826910       14.9717290374       12.9556248063
  H         4.2317939141       14.9925079355       14.5327700754
  C         5.8927792607       13.5271174302       14.1804613214
  N         0.2075321510        7.1290844929       14.3817251636
  C        -0.3344473394        7.4435883676       16.5965199785
  C        -0.7153556205        9.6231025488       17.6750926288
  H        -0.3051610559       11.3623952817       16.4358277221
  H        -0.7833676805        9.7665697028       -1.2248177076
  H        -1.5824020918       11.1474159383       -0.8481257464
  H        -2.5623705089        9.8551496066       -1.4595263407
  S         5.6711734020       14.0432970459       -1.8768312208
  C         5.3928265829       16.6018322998       -2.6181116240
  H        -3.2053598921       12.5013919405        9.7636748543
  H        -3.8601210482       12.6196624662       11.4071570786
  C        -4.7860999957       13.8534780992        9.8344553179
  H         6.4425966508       12.9741240438       13.4442740929
  H         5.4595799276       12.7788585814       14.8398155741
  C         6.9007556801       14.3572840380       15.0188497606
  S         0.0559490091        5.6454788233       14.9984504067
  N        -0.4166884438        6.0568735679       16.4596997460
  C        -0.5850705344        8.1613396806       17.7973720237
  H        -0.9639541431       10.2581168718       18.5061792265
  C         5.8541580667       14.5962742879       -3.5963281959
  N         5.7152919487       15.9250662073       -3.7464207236
  O         5.1599074045       17.7911726275       -2.4662191444
  H        -5.2221644845       14.4689141319       10.6346252719
  H        -4.2544014902       14.4171124758        9.0830201728
  C        -5.8066197774       12.8565013641        9.3263127261
  H         6.5252168035       14.3818546446       16.0466203195
  H         7.8178362904       13.7800914623       15.1060220296
  C         7.0992116566       15.7282840968       14.4743562994
  C        -0.8155611607        7.4155151755       18.9426476823
  S         6.2891417473       13.6721491480       -4.8575007886
  C         5.7639659237       16.6335845801       -5.0471834775
  H        -5.3706138746       12.2455981734        8.5016424921
  H        -6.2716589793       12.1395457435       10.1481201393
  C        -6.9350589380       13.6650376305        8.6958894260
  H         6.3032909665       16.3933104460       14.8621304735
  H         7.0839889068       15.7403749346       13.3489322586
  C         8.4419244395       16.4266909422       14.8794872608
  H        -0.5613474134        6.3775887062       18.9241232008
  C        -1.3838734100        7.7271319415       20.1784270551
  H         6.7182339493       16.3267548346       -5.5083811582
  H         5.7642270474       17.6933310199       -4.9040125097
  C         4.5656732041       16.2638254241       -5.8263933197
  H        -7.5582411364       13.1029936049        7.8898632431
  H        -6.3912433935       14.4667021864        8.1523878483
  C        -7.7161786094       14.4294615306        9.7267087496
  H         8.8251315685       16.2049179955       15.8806930795
  H         9.2703085271       15.9997265620       14.2158824020
  C         8.4220848166       17.8704188867       14.6096658192
  S        -2.0082397702        9.2980331055       20.6387330219
  C        -1.5490233667        6.6426784469       21.1333208868
  H         3.7530421783       15.8078721211       -5.2675011584
  H         4.8925757280       15.5462784201       -6.5556259958
  H         4.0266128835       17.1271010327       -6.2464121836
  H        -7.8494938689       13.7314149926       10.5383047736
  H        -7.2514791485       15.3582889179        9.9808007334
  H        -8.7806156725       14.5312414323        9.4449612424
  H         7.6780934789       18.2460288889       13.9108725063
  H         8.1602905572       18.4904652344       15.5156412520
  H         9.3583959845       18.1358490979       14.2566490667
  C        -2.4516957405        8.4872789190       22.1524914543
  N        -2.3110764949        7.1226574065       22.1382467236
  O        -1.2464222977        5.4641574463       20.9555122399
  S        -3.3063040093        9.2845089963       23.5312303474
  C        -2.5436171658        6.3463270859       23.3896919642
  H        -2.4882504892        5.2727279569       23.1089393280
  H        -3.5413063803        6.4319076260       23.8416557693
  C        -1.3841936572        6.5383317425       24.3704669779
  H        -1.7291811300        7.1088696786       25.3249632179
  H        -0.6544191736        7.1455491785       23.9222100846
  H        -0.8990761756        5.6529029079       24.6726364782
