352
i =
  H        -3.8185202325       15.0820693984       16.5163295605
  C        -3.2402722423       14.1032080796       16.4306561490
  H        -4.0625205171       13.4491323549       16.8195494704
  C        -2.0042387259       14.0221209215       17.2782637129
  C        -2.8296847842       13.8117650941       14.9463241442
  C        -2.1389450642       14.3065766877       18.8031567571
  H        -1.8075399633       12.9747672919       17.2833897403
  H        -1.1793245276       14.6156812736       16.8070137851
  H        -2.9670773236       12.8147130441       14.6436287944
  H        -3.3546278492       14.4699465662       14.3081076961
  H        -1.7438034044       14.0258292845       14.8896838858
  C        -2.1544723691       12.9837012740       19.5505563698
  H        -3.0380289127       14.8420202319       19.0841905506
  H        -1.3230064445       14.8453497836       19.1697237581
  C        -2.6063823441       13.1425083903       21.0552597498
  H        -2.9289649656       12.4061483141       19.0814788110
  H        -1.2187407242       12.4009938638       19.3673972834
  C        -1.6739559766       12.5657968486       22.1506975965
  H        -3.5776962002       12.6411594661       21.2948676863
  H        -2.8346723995       14.1855263581       21.2297239903
  C        -0.3457090968       13.3863980664       22.3700755971
  H        -2.2129173062       12.4981698933       23.0663467652
  H        -1.4439155212       11.5176262367       21.8978868668
  C         0.7563619876       12.7242289032       23.1491359330
  H        -0.0093778662       13.7401846645       21.3979419777
  H        -0.6410770381       14.3759417345       22.8633329106
  C         1.1512802682       11.3752856096       22.5908898551
  C         0.2644664846       12.1562128766       24.4512163363
  C         2.0194264247       13.6488737403       23.1197350531
  C         0.7624645054       10.3437211736       23.4009141513
  C         1.7849997515       10.9152402700       21.4428549697
  C         0.1926051279       10.8200736781       24.5659774965
  C        -0.0703543685       12.8272929686       25.5778040634
  H         2.3553014690       13.7776276533       22.0779962073
  H         1.7605875247       14.7175488329       23.4492349978
  C         3.2172646366       13.2218497637       23.9933591178
  S         1.1430265806        8.7639096321       22.7273551419
  C         1.9370331510        9.5142777313       21.4307579813
  H         2.0297984273       11.6294844917       20.7226659227
  C        -0.1099925863       10.2580578006       25.7581444348
  H         0.0413829440       13.8907030552       25.4431028660
  C        -0.3373193104       12.2811514468       26.7888382447
  H         3.5557979216       12.2313286793       23.5733294262
  H         2.8793411261       12.9759899461       25.0010910671
  C         4.4335774042       14.0733570893       23.9764340976
  C         2.4316230381        8.8602276257       20.1360392893
  C        -0.4339118381       10.9357833782       26.9827488744
  H        -0.2577027847        9.1288948859       25.7334788703
  C        -0.7340215501       12.7208236840       28.0062258400
  H         5.1788014904       13.5848823487       24.6699207301
  H         4.2033727144       15.0185283183       24.4494132218
  C         5.0956400684       14.3175823833       22.5812462661
  C         2.5366244320        7.4175039554       20.0120156938
  C         2.8201287108        9.7093914253       19.0204870450
  C        -0.7710036734       10.2943250452       28.2976506531
  C        -0.9596071277       11.6518149696       28.9251027939
  S        -0.9162166803       14.2202244109       28.7782370602
  H         5.9206589679       14.9791442787       22.7800316889
  H         4.4551394032       14.8227196837       21.9055567949
  C         5.7488171024       13.1128544905       21.8712018027
  N         2.2226643799        6.4779482716       20.9563434002
  C         2.7612597128        6.8906271245       18.7273285589
  C         3.2098909698        9.1139490607       17.8131582600
  H         2.7573014524       10.7971778080       18.9787709069
  C         0.2885257906        9.4725212895       29.0281158074
  C        -2.1410374628        9.5965712762       28.3104274711
  C        -1.3815738404       12.0780789092       30.2568411959
  C        -1.4320614628       13.4399562243       30.2581635090
  H         6.7325114954       12.9987949486       22.4289153812
  H         5.1363981674       12.2434095179       21.9648773623
  C         6.0539849862       13.3098317034       20.4369358426
  S         2.2606068237        5.0160726774       20.2848148963
  N         2.4477795231        5.4932360567       18.7750476653
  C         3.1537308180        7.6415224981       17.6123934141
  H         3.6490353010        9.7440432731       17.0621933952
  H         0.5451939435        8.5653604177       28.4599773200
  H        -0.1484008845        9.2616028383       29.9880303954
  C         1.6065493309       10.2616689108       29.4281735692
  H        -2.2173947314        8.8032069131       27.4948333332
  H        -2.3820727420        8.9877509977       29.1817364948
  C        -3.2650259703       10.4760799315       28.0979136454
  H        -1.7360852140       11.3377774473       30.9701013299
  C        -1.7831558398       14.2647321910       31.4326279816
  H         5.5018685321       14.1642544744       20.1882400681
  H         5.5963549884       12.5240379697       19.8199955287
  C         7.5822221675       13.4649595073       20.1333258796
  C         3.4717445208        6.9576081491       16.3583338009
  H         2.0561034591       10.5576919004       28.4915595074
  H         1.4551533395       11.2261251538       29.9025324607
  C         2.6573392050        9.4108109976       30.1129936146
  H        -3.0591675702       11.3202493580       27.3931523578
  H        -3.4636530816       10.9646820654       29.0277601219
  C        -4.5425614925        9.8157085806       27.6143222207
  C        -1.6979111875       15.7066476185       31.5993641374
  C        -2.1283091558       13.5923391847       32.7512202984
  H         7.8736838842       14.3718408065       20.7204671641
  H         8.1119133313       12.5957385171       20.5534184475
  C         7.8349967869       13.4799664160       18.6604655609
  H         3.3769589170        5.8792548373       16.4872960649
  C         3.6629346860        7.3865846797       15.0121029668
  H         2.9398261736        8.7099493228       29.3315478252
  H         2.2862041566        8.8852740896       31.0036353048
  C         3.8310814369       10.2910580106       30.6838027100
  H        -4.3577350251        9.3243303571       26.6094665671
  H        -4.9315584550        9.0210006681       28.3425291415
  C        -5.5990013940       10.9163718847       27.5661155150
  N        -1.3610593555       16.5403935958       30.5616945313
  C        -1.8371620351       16.3879922297       32.8123598196
  C        -2.4260449553       14.3149412931       33.9337010582
  H        -1.9934656627       12.5039889946       32.8842975780
  H         8.5951579787       14.2116778843       18.5184842194
  H         8.2165946646       12.5087891941       18.2754217531
  H         7.0107476188       13.7223820584       18.0326345314
  S         3.8163095992        8.9577941670       14.4570726215
  C         3.7003230879        6.3293523515       13.9691180984
  H         3.9926927647       11.1911638206       30.1039117541
  H         3.5903680801       10.6461852980       31.7409198184
  C         5.1654684158        9.4611704369       30.6843578494
  H        -5.2954053294       11.7191279215       26.8741093407
  H        -5.5511452188       11.2841709848       28.5752719207
  C        -6.9472297614       10.2515903523       27.1686690788
  S        -1.4565008700       18.1094715654       31.0418570548
  N        -1.8530479458       17.7763440909       32.6097238554
  C        -2.2478255630       15.7801345038       34.0279341666
  H        -2.6283557204       13.7315969948       34.8238656319
  C         3.9298403590        8.1356796385       12.8936886976
  N         3.9264772781        6.8359145257       12.7543879100
  O         3.5919808399        5.1366160485       14.2055163965
  H         5.8892588023       10.0198615878       31.2755591008
  H         5.5472206437        9.2900918920       29.6591696511
  C         5.0137425558        8.0661568367       31.4503931081
  H        -6.7753224873        9.1563214259       27.0824261918
  H        -7.6098054351       10.2550230812       27.9661724044
  C        -7.5747177082       10.7985871816       25.9217293914
  C        -2.5085542686       16.6881631312       35.1043137741
  S         4.0515725601        9.0295472184       11.4340499852
  C         3.8206278046        6.0687525188       11.4755773045
  H         4.6661497999        8.2718311817       32.4357061155
  H         4.3139880716        7.4132815762       30.8840032820
  C         6.3078548649        7.2659081654       31.5370434137
  H        -6.7716518330       10.8861570220       25.1358313816
  H        -7.8050764462       11.7628364203       26.0668185825
  C        -8.7221789483       10.0802742964       25.4121708468
  H        -2.1369070976       17.6517385676       35.0297264548
  C        -3.1614234173       16.4659738576       36.3469073885
  H         4.3506579155        6.4451799398       10.5926196759
  H         4.2625457639        5.1138289334       11.6674454778
  C         2.3556342267        5.9455525949       11.1288937365
  H         6.3362576680        6.7813567549       32.5054159426
  H         7.0127931351        8.0386878498       31.6247226480
  C         6.4950399944        6.2211115610       30.4438055067
  H        -8.9975583019       10.4851896111       24.4485828207
  H        -8.3665834986        9.1323329841       25.1052756664
  C        -9.9407286236        9.8048367371       26.2780980836
  S        -3.8318579745       14.9719363000       36.8203049532
  C        -3.2117914896       17.5723982700       37.3205537039
  H         1.9870913265        6.3055324257       10.1242592338
  H         2.0329244693        4.9899956837       11.4736321466
  H         1.7695694610        6.6000813961       11.8280004284
  H         7.5480381419        5.8203973739       30.6238669794
  H         6.4157116718        6.5846093395       29.3936401798
  H         5.7111347294        5.4450785648       30.5229841220
  H        -9.7785842221        9.2326732772       27.2004053642
  H       -10.7990469669        9.3897982137       25.7222708825
  H       -10.4153464933       10.7539002261       26.5669165143
  C        -4.0717452386       15.8076861908       38.4199650101
  N        -3.8043568307       17.1170934703       38.4675718799
  O        -2.6684006036       18.6422295105       37.0774540435
  S        -4.9462850543       15.2107810705       39.9077323372
  C        -3.7062969966       17.9562947588       39.6532921050
  H        -4.0281964043       18.9875868640       39.3731537709
  H        -4.4334893999       17.7202475320       40.4537682771
  C        -2.2929692367       18.0417844319       40.2413903221
  H        -1.4941535031       17.5059836105       39.7153348189
  H        -1.9975716821       19.0653845659       40.1758094512
  H        -2.3009673985       17.6615806628       41.2811251130
  H         7.0967026115       11.2458158335        3.0537841666
  C         7.7430377672       10.4285599146        3.3568772756
  H         7.0623764564        9.6720861748        3.6318248735
  C         8.6756835980       10.6735296455        4.5924988681
  C         8.6098815545        9.9193940604        2.1978353828
  C         7.8934235834       10.8125380373        6.0080895382
  H         9.4472228930        9.9002927618        4.4353395204
  H         9.2561079973       11.5737234904        4.5026887241
  H         7.9405804689        9.7060005330        1.4257994180
  H         9.2593138739        9.0857049806        2.5917964183
  H         9.2579596418       10.6863262119        1.7718112799
  C         7.3878616505        9.4982562771        6.6314404680
  H         8.4049886181       11.5607325428        6.6865946684
  H         7.0226337196       11.3887422302        5.7138711873
  C         6.7315238936        9.6221838354        8.0091417013
  H         8.1941324665        8.7579817770        6.6423121370
  H         6.6279706295        9.0092892572        5.9765943271
  C         5.5425075328       10.5418675107        8.1133376910
  H         7.5135328320        9.9840611396        8.6825208551
  H         6.5413169637        8.5803346299        8.3433967593
  C         4.2405969166        9.8794151394        7.6367342834
  H         5.3656262965       10.8509613470        9.1297750681
  H         5.7938147163       11.4292343740        7.6469109048
  C         2.9618803093       10.8048138680        7.3724761972
  H         3.9351082202        9.1567391692        8.4004554026
  H         4.5211846803        9.3696185884        6.7030753631
  C         3.2797951616       12.2030764663        6.7502171040
  C         2.4761244744       11.4797561631        8.5797199748
  C         1.7971164057       10.0940079996        6.6463113701
  C         3.0339597221       13.2623318611        7.5680988342
  C         3.5922513663       12.6327637989        5.4569075069
  C         2.4758842389       12.7961530019        8.7578738747
  C         1.9349818349       10.8210400982        9.7022121931
  H         2.0821621551        9.5315406867        5.7405288209
  H         1.3279248066        9.3228731331        7.1666328338
  C         0.5175795660       10.9227565834        6.3320434633
  S         3.3944010593       14.7698468057        6.8006680583
  C         3.7500894061       13.9941183256        5.3452191094
  H         3.6885949891       11.8055194250        4.8087298697
  C         2.0257737917       13.3646389059        9.9410627505
  H         1.9152967725        9.7760308894        9.6861641779
  C         1.5403850090       11.4448546097       10.8761484838
  H         0.8467777572       11.7354943410        5.7009158111
  H         0.2415965008       11.3609320960        7.2489694234
  C        -0.5765099624       10.1663022469        5.5963103128
  C         4.0841369234       14.6850565612        4.0925031753
  C         1.6248697139       12.7561271921       11.0932248182
  H         2.1343756688       14.4615222263        9.9265185909
  C         1.1124154114       10.9495848034       12.0556393670
  H        -1.4397684907       10.8252074528        5.5569251379
  H        -0.8960988883        9.2493318788        5.9945671286
  C        -0.0928680823        9.8678740034        4.2309887690
  C         4.0755105550       16.0673021158        3.8363103457
  C         4.5797072634       13.8738298457        2.9732437994
  C         1.1630680711       13.3733924782       12.3137346899
  C         0.9766704392       11.9952653688       12.9383559000
  S         0.8565197897        9.4658142058       12.8462331579
  H         0.5073758499        8.9783229248        4.1080040097
  H         0.6798197168       10.5646477839        3.9012608984
  C        -1.1721461424        9.7838995880        3.2443529406
  N         3.7154864323       17.0304929374        4.7630993708
  C         4.3767305887       16.6445295899        2.5846835937
  C         4.8602434866       14.3823957957        1.7107710193
  H         4.9034423205       12.9218172239        3.1226581631
  C        -0.1114627438       14.2003237057       12.2520751687
  C         2.3622596972       14.0562829304       13.0302487949
  C         0.5439201639       11.6344049012       14.1955171406
  C         0.4022973665       10.2584875635       14.3385846567
  H        -1.8255974530        8.8773269747        3.3771379369
  H        -1.8800756666       10.6170197345        3.3945859021
  C        -0.5333868211        9.6718540353        1.8112309842
  S         3.5321125521       18.4644280113        4.0237965412
  N         4.2309416568       18.0061268474        2.5752337671
  C         4.8214960673       15.8597198366        1.5167433476
  H         5.3935001606       13.7484313141        0.9955024171
  H        -0.0156516873       15.1092092326       11.6981612999
  H        -0.3934425407       14.5795264165       13.2358559667
  C        -1.3057326643       13.4343895769       11.6378356697
  H         2.6772307176       14.9170184947       12.4760517883
  H         1.9328390069       14.5222709431       13.9339938166
  C         3.5395609621       13.1321658264       13.3615510775
  H         0.3718240767       12.4065008392       14.9132632276
  C         0.1108306784        9.4611188464       15.5652471915
  H         0.2431970097        8.9184378138        1.9768471953
  H        -0.0827073057       10.6118083477        1.6848307002
  C        -1.4501292441        9.1473527190        0.6534122557
  C         5.0666156071       16.5427953346        0.2583365463
  H        -1.0596128172       12.9488699079       10.6792311115
  H        -1.6335466994       12.6890227471       12.2894232483
  C        -2.4779801292       14.2783503020       11.2863758513
  H         3.9627389440       12.6837366705       12.4569693413
  H         3.1786061563       12.2611085526       13.9634730036
  C         4.5829503577       13.9430566462       14.1970366379
  C         0.0670687865        8.0369204414       15.6585902474
  C        -0.2764510048       10.2375178830       16.8027231548
  H        -1.7490320581        8.1199010152        0.8610109407
  H        -2.3325303935        9.7155628388        0.4939001904
  C        -0.5704393931        9.1619812161       -0.6553147347
  H         5.2686083155       17.6316396552        0.3483654677
  C         5.4070728016       16.1426099336       -0.9840784291
  H        -2.2950699597       15.2018235645       10.6749308269
  H        -2.9264847330       14.6346551652       12.1665650835
  C        -3.4668944125       13.3471541815       10.5778562729
  H         4.7972543593       14.8034819957       13.6032731769
  H         4.0847237799       14.2697630483       15.0972345224
  C         5.7908988231       13.2157591914       14.6815540537
  N         0.2187621379        7.1402837900       14.6848273877
  C        -0.2539789215        7.4557352253       16.8117344729
  C        -0.5640996817        9.6135711609       17.9845671295
  H        -0.2008817840       11.3219010382       16.7355145397
  H        -1.3129038028        9.5153654535       -1.4684409245
  H        -0.1304041728        8.2395811850       -0.9229398216
  H         0.2252738225        9.8508749734       -0.2857741329
  S         5.5687676818       14.5446467625       -1.5328323353
  C         5.4037816256       17.2249856903       -2.0442192502
  H        -3.1921367565       13.3287618879        9.5312105038
  H        -3.2468716244       12.3453343044       10.8330202769
  C        -4.9184310311       13.7053201859       10.6894432054
  H         5.7291084060       12.2024206096       14.3041886256
  H         5.8714680610       13.1797888693       15.7576963324
  C         7.1367303729       13.6956190690       14.1594928133
  S        -0.0300178551        5.6311728536       15.2451124172
  N        -0.2891045933        6.0490548387       16.7988192774
  C        -0.4640007273        8.1428975253       18.0576847933
  H        -0.9041459664       10.2682410394       18.7898650524
  C         5.8141889245       15.3027652193       -3.1397281731
  N         5.7205704084       16.6078506998       -3.2033022383
  O         5.1145337845       18.4119012467       -1.8053094562
  H        -5.0868814568       13.6737364097       11.7438922572
  H        -5.2497201967       14.6521263880       10.2485809565
  C        -5.6532819371       12.5476368157       10.0228448193
  H         7.8691452552       13.1886609959       14.7908465813
  H         7.2344809490       13.1627857241       13.2692956875
  C         7.3733098866       15.1295628488       13.9164317714
  C        -0.7457045666        7.3140148582       19.1920819136
  S         6.0421314290       14.4502423321       -4.6231535623
  C         5.6768704969       17.3782808058       -4.4833254334
  H        -4.8764208826       11.7560012345        9.9167050553
  H        -6.3895051461       12.1642755127       10.7130410544
  C        -6.3065777274       12.9185530392        8.7067102277
  H         6.7376635020       15.5068207507       13.1309608726
  H         8.4328683543       15.1820577869       13.5949060104
  C         7.2819106154       15.9543076520       15.1797253599
  H        -0.6001483468        6.2145417081       19.0490369138
  C        -1.3474182354        7.5723619719       20.4054827869
  H         6.5484888867       17.2056704107       -5.1627292342
  H         5.6229225111       18.4023028800       -4.2521726760
  C         4.3758822372       17.1243462851       -5.3081539056
  H        -6.2467223446       12.1557723911        7.9045686195
  H        -5.7324547141       13.7842554012        8.2810342540
  C        -7.7347958194       13.2075484669        8.8682474101
  H         6.2652437658       15.9953733005       15.5971751933
  H         7.9043388941       15.6077618058       16.0390052429
  C         7.7166251410       17.4196563006       14.9091228486
  S        -2.0898472074        9.0382848881       21.0024525632
  C        -1.5672638857        6.3953702752       21.2596615499
  H         4.6033503742       16.2765213802       -6.0059776461
  H         3.9887719245       17.9169650288       -5.9439548802
  H         3.7609765989       16.6325991088       -4.6375699774
  H        -8.1680387711       12.5233736023        9.5361792910
  H        -7.7882468725       14.1461512387        9.1893588951
  H        -8.3312250619       13.0571782429        7.9543425545
  H         8.5387575601       17.6947334552       15.5378017835
  H         8.0215312984       17.6048628222       13.9016226739
  H         6.9935478697       18.2943154409       15.0607780022
  C        -2.6685362860        8.1224032894       22.3856982419
  N        -2.2936681315        6.7927284063       22.3069642860
  O        -1.1738495206        5.2710888850       21.0982862633
  S        -3.4773492262        8.6615011994       23.8565924414
  C        -2.3805967996        5.8172704003       23.4708625827
  H        -2.5266338619        4.7680908371       23.2072673685
  H        -3.1418928860        6.0866115722       24.1614305940
  C        -1.0587339126        5.7642970266       24.2800423794
  H        -0.9520809060        4.7377281179       24.5828154508
  H        -1.0387706460        6.3485657084       25.2154360342
  H        -0.1952352393        6.0511592075       23.6137544622
