352
i =
  H        -3.5868281753       15.1677553393       15.8871630924
  C        -3.3031535421       14.1270602356       16.0025336226
  H        -4.2168734888       13.6409202116       16.3382229423
  C        -2.2403323764       14.2094175994       17.0934121189
  C        -2.9049148265       13.4795025877       14.6638426458
  C        -2.8613855759       14.0737200262       18.4006141063
  H        -1.4945746875       13.4884014089       16.9521148234
  H        -1.7552677142       15.1567670467       17.0105706261
  H        -1.8863420732       13.2414001526       14.6541854519
  H        -3.4848382398       12.5523604409       14.3697552447
  H        -3.0318163893       14.1320562044       13.8267404043
  C        -1.9151368722       13.6253448195       19.5030858108
  H        -3.5102957677       13.2544029763       18.3917443961
  H        -3.3572179947       14.9039329173       18.8027740642
  C        -2.3846363094       13.8132428309       20.9816932199
  H        -1.7157530902       12.5512331242       19.4044025318
  H        -0.9156582574       14.1147236503       19.3870828943
  C        -1.2757416912       13.1841511907       21.9288392422
  H        -3.3003764843       13.3556877997       21.2372389102
  H        -2.6678593875       14.8153785563       21.3396487111
  C         0.0070577821       14.0881478302       22.1217514329
  H        -1.6397045845       12.7525427035       22.8740358681
  H        -1.0219718106       12.2644884677       21.4103660791
  C         1.1993365557       13.3765148466       22.8338394535
  H         0.4233318189       14.3777156909       21.1462094754
  H        -0.2844957631       14.9496504312       22.6114157849
  C         1.5131462543       12.0734737676       22.0995160764
  C         0.7014047619       12.6821055290       24.0341484905
  C         2.3902495339       14.3168489095       23.0655979040
  C         1.3310803827       10.9593755731       22.8926873028
  C         2.0205169524       11.6313378465       20.8007328211
  C         0.8879351066       11.3525860341       24.1631258420
  C         0.3243816010       13.3444683860       25.2233654413
  H         2.3944129262       15.0360561485       22.2714336407
  H         2.2827994167       14.9569604973       24.0206277148
  C         3.7253705744       13.6139680342       23.1669992890
  S         1.7188278954        9.4275446972       22.1636517461
  C         2.1778044297       10.2941052968       20.7120091420
  H         2.3659242672       12.3394872162       20.0487567516
  C         0.5281543751       10.7166089102       25.3177340737
  H         0.4455037226       14.4600695849       25.2458532638
  C        -0.0791858322       12.6921151857       26.3079319822
  H         3.9967116125       13.2018449590       22.1384636961
  H         3.6107425920       12.7241741740       23.7531946023
  C         4.9537012961       14.4321250412       23.6339913752
  C         2.8142099493        9.6023394583       19.5347715909
  C        -0.1033747068       11.3624645899       26.3843701329
  H         0.5824670763        9.6527530841       25.3436842951
  C        -0.4868584761       13.0868602296       27.5795939089
  H         5.4361320012       13.9769792192       24.4898408521
  H         4.7470544433       15.4166049790       24.1098953099
  C         5.9774982914       14.7750551419       22.5191279564
  C         2.6826088231        8.1376232605       19.2546674719
  C         3.4357382656       10.3293288073       18.3935910303
  C        -0.5371585625       10.7190663972       27.6243054855
  C        -0.7899626006       12.0126548359       28.3290380134
  S        -0.7505725352       14.6435699938       28.4390236389
  H         6.6189709654       15.5734375174       22.7202686072
  H         5.4729773637       15.3705912242       21.8090027390
  C         6.7790698528       13.5699204687       21.9495481518
  N         2.2206902541        7.2470870169       20.1507403572
  C         2.9570130964        7.6074936669       17.9678010173
  C         3.8519553065        9.7333614426       17.2097858917
  H         3.4743698330       11.4388725699       18.5239106022
  C         0.5405651275        9.8743269806       28.4007131464
  C        -1.8738255564        9.9037159106       27.5561786885
  C        -1.2555558512       12.3732474345       29.6122090704
  C        -1.2761914329       13.7508979106       29.8321876700
  H         7.8563631594       13.6705986429       22.0752766081
  H         6.5797844131       12.7385892209       22.5770012007
  C         6.3224798355       13.2648293271       20.5337501389
  S         1.9169556716        5.8272346493       19.3065126110
  N         2.4500855048        6.2882813191       17.8071616630
  C         3.5198973021        8.3422000970       16.9057949276
  H         4.2967754817       10.3847597618       16.4746792442
  H         0.8230554524        9.0067047518       27.7947239529
  H         0.2865912265        9.5078081885       29.4048873326
  C         1.8180432390       10.6873588886       28.7085438970
  H        -1.8250895620        8.9964903583       27.0153304058
  H        -2.1966932625        9.3891428673       28.5107173181
  C        -3.1330448662       10.8239096417       27.2387588837
  H        -1.5288449557       11.5749442898       30.3127125212
  C        -1.6081010053       14.4411828155       31.1751227160
  H         5.4859476089       13.8457495769       20.2336081813
  H         6.0607491458       12.2417823332       20.3798432662
  C         7.3555170548       13.5640711917       19.4314404957
  C         3.7309302410        7.7690044055       15.6195509522
  H         2.2356812404       11.0535226345       27.7639745840
  H         1.5607533969       11.4704277820       29.3250725793
  C         2.8704185588        9.7312570941       29.3479122967
  H        -2.8723221183       11.5006875764       26.4355409426
  H        -3.4792729985       11.4570598378       28.0582702843
  C        -4.3332591868       10.0304330554       26.8111889990
  C        -1.7240802886       15.8044940461       31.4240441580
  C        -1.8400922051       13.5621006010       32.3599743246
  H         7.7614069112       14.5583571083       19.5807121934
  H         8.1828565084       12.8208112192       19.3440715236
  C         6.5531657002       13.6744099028       18.1445189751
  H         3.5063058962        6.7159391951       15.5971458946
  C         4.0492945371        8.2790972091       14.3804450481
  H         3.0391290192        8.8885243447       28.7093573961
  H         2.5154968025        9.3689568149       30.2628842824
  C         4.1782056150       10.4116733075       29.7429488739
  H        -3.9992711222        9.1496110816       26.1734994339
  H        -4.9096338683        9.7799369201       27.6791336836
  C        -5.3559720604       10.9025585324       26.0743690628
  N        -1.4285321608       16.7990625375       30.5046096033
  C        -2.1185441741       16.2980604161       32.6550963975
  C        -2.1777516703       14.0358811801       33.6453392491
  H        -1.6915377525       12.5570882723       32.2721605225
  H         5.8704962883       14.5275076111       18.1719913555
  H         7.1740354248       13.8776681888       17.2732744009
  H         6.0299321928       12.7596887991       18.0773233388
  S         4.3410900497        9.9372321626       13.8600178149
  C         3.9704164480        7.3289569364       13.2599190377
  H         4.2003346571       11.4556881930       29.4292085608
  H         4.2216248966       10.3551499779       30.8082027809
  C         5.3407282164        9.6534862535       29.1712971382
  H        -4.8763765874       11.1056766321       25.1157356163
  H        -5.6141009921       11.8051363503       26.6423122082
  C        -6.4876772323       10.0686551288       25.6689541969
  S        -1.6267055881       18.2775376770       31.2309601052
  N        -2.1699743183       17.6990256511       32.6900716017
  C        -2.3931975742       15.5118148305       33.7947835135
  H        -2.3754003786       13.3499443068       34.4020664011
  C         4.4924071841        9.2897684579       12.2410850990
  N         4.2968532466        7.9327955001       12.1116385408
  O         3.9305447598        6.1034102764       13.4314055934
  H         5.9332673598       10.5210587660       28.8402508219
  H         5.1368564613        9.0325440914       28.3179003793
  C         6.1585599515        8.8812234353       30.1296456679
  H        -6.2257872040        9.0941423564       25.2451030116
  H        -7.0578331013        9.8770613805       26.6137715745
  C        -7.5361989700       10.7052041151       24.7721006375
  C        -2.8254860720       16.1276736885       35.0054398807
  S         4.8361676608       10.2324593053       10.7915211685
  C         4.1810465064        7.1813875248       10.8673015374
  H         7.0982952429        8.7120768507       29.6086997402
  H         6.2370986902        9.5105080896       31.0315989847
  C         5.5720937149        7.5149378851       30.4688526705
  H        -7.1543447554       10.7796792461       23.7972374250
  H        -7.5726421736       11.6882203336       25.1401229850
  C        -8.9265532119        9.9702018301       24.6154729145
  H        -2.4769413481       17.1850431859       35.0852870995
  C        -3.2863643049       15.5669579802       36.1503030588
  H         4.9970512053        7.5582347638       10.2215058229
  H         4.3758481159        6.1412896017       10.9854283470
  C         2.7397902628        7.3178834009       10.3202162120
  H         5.1547644245        6.9455225850       29.5984132586
  H         4.6906893954        7.8030271040       31.0734410041
  C         6.4690756906        6.5856093563       31.3318896263
  H        -9.3578785631       10.2604215771       23.6378756016
  H        -8.7926412615        8.9031729055       24.5343312800
  C        -9.7835527026       10.2346748458       25.8869370140
  S        -3.7062563356       13.8919468939       36.3835927876
  C        -3.6978922510       16.4874078220       37.2725865867
  H         2.6264905124        6.9214114851        9.3153209818
  H         2.0752874178        6.7440927176       10.9264373445
  H         2.4337007438        8.3729499493       10.3631041625
  H         6.9619329192        7.0903414876       32.1666590119
  H         7.2313036842        6.1106736645       30.7490766619
  H         5.9118222156        5.7982394245       31.7299253355
  H        -9.2389955501        9.8315405363       26.7575111805
  H       -10.6339801462        9.6154240718       25.6001445359
  H       -10.1460422681       11.2496678477       25.9942742352
  C        -4.2517345238       14.4211017442       37.9836985066
  N        -4.2760012311       15.7607006848       38.2159089840
  O        -3.4561183032       17.7036993113       37.2576325009
  S        -4.9852360946       13.4155405367       39.2352599081
  C        -4.6432062982       16.4008456533       39.4122285810
  H        -5.0024056670       17.3880271138       39.2042307308
  H        -5.5619733780       15.9653558197       39.9103605034
  C        -3.4464776978       16.5152275889       40.3763907803
  H        -2.7944737755       17.3731754324       40.1396399477
  H        -3.8050884778       16.6518515104       41.4300789787
  H        -2.8859789594       15.6040207866       40.2487478286
  H         7.5939036118       11.9518091221        3.2265418408
  C         8.1762884332       11.1139703238        3.2945371839
  H         7.3562017067       10.4130702856        3.2541226607
  C         9.0277017782       11.0638908422        4.5997502724
  C         8.9823750311       11.0542503245        2.0265868246
  C         8.1761714438       11.2344190725        5.8527079028
  H         9.6716243928       10.2372031546        4.7844111678
  H         9.6702997017       11.9053670429        4.5059928552
  H         9.6256460675       11.9464591891        1.9356873783
  H         8.3555309949       10.8942306155        1.1085385212
  H         9.7415856629       10.2300929151        2.0383714171
  C         7.3328741032        9.9808546568        6.1339631114
  H         8.9400219655       11.3903577489        6.7188905465
  H         7.5184020976       12.0543020636        5.6877860706
  C         6.6545686619       10.1131910413        7.4322240723
  H         7.9989300771        9.1317501943        6.2510078923
  H         6.6253397630        9.7001443366        5.3662504397
  C         5.3771778755       10.9217844711        7.2799759311
  H         7.2511949354       10.5659752280        8.1786047766
  H         6.3997736577        9.1647509048        7.8709600059
  C         4.0823307919       10.2718687201        6.7849238790
  H         5.2726936128       11.2690248741        8.2659068371
  H         5.4882512836       11.7804913096        6.6380003499
  C         2.9385925020       11.2174755380        6.6253419197
  H         3.9217986585        9.3664273890        7.3580088838
  H         4.2223846491        9.8143014736        5.7965651276
  C         3.2883825360       12.6214350062        6.0032944444
  C         2.4718584237       11.9342304947        7.9090606263
  C         1.8397938976       10.5412470561        5.7403200677
  C         3.1710446621       13.6450259109        6.9113263972
  C         3.7296969293       13.1256755952        4.7826993472
  C         2.6188718290       13.2593581394        8.1131021999
  C         2.1069506826       11.2585232543        9.0606729428
  H         2.3747549650       10.1069059101        4.9033266651
  H         1.4267975040        9.6387806384        6.2211098115
  C         0.6628083159       11.3990132910        5.3370815362
  S         3.6366311947       15.1943547308        6.2357308825
  C         3.8786600582       14.4598103811        4.7587372901
  H         3.6991348239       12.4001180822        3.9709214132
  C         2.2303391331       13.8781376203        9.2649761176
  H         2.2010165774       10.1918449921        9.0195572054
  C         1.7544443172       11.8318865965       10.2476786857
  H         0.9578141063       12.3280166609        4.9671661793
  H         0.0601449791       11.7167904264        6.1961683301
  C        -0.1555968400       10.7547130015        4.3110474811
  C         4.3156362631       15.1829189079        3.4822302485
  C         1.7729150970       13.1635762591       10.4038337183
  H         2.3472006790       14.9560686371        9.2801176030
  C         1.4155083171       11.3554060126       11.4760292401
  H        -1.1103738217       11.2152206009        4.0008260726
  H        -0.3589726599        9.7509426751        4.6148063680
  C         0.7393048579       10.6901472275        3.0426400156
  C         4.3996431210       16.5853621098        3.2743840947
  C         4.7336457032       14.3398816288        2.3614610599
  C         1.4702015696       13.8180451033       11.6984991057
  C         1.1919288116       12.4372570257       12.3234268205
  S         1.2521825705        9.8590582137       12.2568107866
  H         1.2312450531        9.6815366699        2.9933312073
  H         1.5575276508       11.3623489404        2.9839320303
  C         0.0366596143       10.8963052369        1.7210246848
  N         3.9390529519       17.5316446198        4.1887741747
  C         4.7284896962       17.1424235363        2.0284122315
  C         5.0599873633       14.8381661509        1.0825479142
  H         4.8288390616       13.2692567527        2.4850109059
  C         0.1281520698       14.5955255361       11.6174718850
  C         2.6536839260       14.5597522738       12.4192154117
  C         0.8568534007       11.9899997319       13.6605349715
  C         0.9109078392       10.6316412727       13.7493757218
  H        -0.8487014177       10.1990262777        1.6123645581
  H        -0.3409505559       11.8252069082        1.5880245197
  C         0.9520511348       10.4926369686        0.5569140577
  S         4.2568675657       19.0250056498        3.5734753824
  N         4.5775217975       18.5449075125        2.0488706594
  C         5.0492177642       16.3177935733        0.8702442972
  H         5.6024921819       14.2161760332        0.3044046913
  H         0.1450638242       15.5318471762       11.0542214010
  H        -0.2232967915       14.8939410456       12.5614419121
  C        -0.9965390624       13.7548482871       10.9536798035
  H         2.9312736705       15.5007979129       11.9456731734
  H         2.3607833204       14.8895092108       13.4609989761
  C         3.9528791328       13.7220337942       12.5788606073
  H         0.5852051264       12.7324497187       14.4434691820
  C         0.5982200381        9.8227831906       14.9990468577
  H         1.3315979574        9.4832435308        0.7074026052
  H         1.8319355029       11.0429979840        0.5403308098
  C         0.1521165081       10.4196156097       -0.8269791567
  C         5.3159488752       17.0203795223       -0.3444710706
  H        -0.7949136066       13.2575669957        9.9754016696
  H        -1.4165608374       13.0119732230       11.6000812071
  C        -2.2360774292       14.5397532533       10.6906190628
  H         4.3799916216       13.5224541102       11.5874647750
  H         3.5665567398       12.7733832483       12.9755058397
  C         4.9198751599       14.3041387279       13.6430906098
  C         0.6217709002        8.3610790397       15.1257428062
  C         0.2498117998       10.6377224163       16.1787241235
  H         0.1364501243       11.4828552729       -1.1495555244
  H         0.7001728171        9.7731979965       -1.5011093812
  C        -1.2641932542        9.9161609256       -0.7517080509
  H         5.1941485130       18.0635254560       -0.3663159505
  C         5.6658605977       16.5331448404       -1.5706834282
  H        -2.0566288514       15.2849226529        9.8293527119
  H        -2.4505001601       15.2330014821       11.4955020101
  C        -3.5059079642       13.7077311785       10.5001142275
  H         4.3641483777       14.8446594978       14.3739746612
  H         5.4834942249       13.5012156781       14.0852992155
  C         5.9985066737       15.1717784002       13.0691743866
  N         0.8302709712        7.4660333623       14.0698185638
  C         0.0343046531        7.7699006464       16.1842348100
  C        -0.2271391616        9.9421361033       17.3455045049
  H         0.3326867376       11.7213546754       16.3450954868
  H        -1.7243077610        9.6048825035       -1.6748068449
  H        -1.8148067923       10.7944098189       -0.4551475245
  H        -1.2404409638        9.0263123595       -0.1129815975
  S         5.8925699792       14.9234039869       -2.1397654274
  C         5.7747641851       17.5610853101       -2.6706536183
  H        -3.2593473104       12.8773388515        9.7979152981
  H        -3.7666295664       13.3563935335       11.5461753789
  C        -4.6887200710       14.5501589383       10.0437233909
  H         5.5521459905       15.7481349494       12.2357263048
  H         6.7574291065       14.5250449179       12.7284518679
  C         6.5718592195       16.1906066899       14.1087930914
  S         0.5146683831        5.9169363550       14.6221986673
  N        -0.0254320247        6.3613907766       16.0614777915
  C        -0.3919117085        8.4251690360       17.3640865607
  H        -0.3973251954       10.5106805985       18.1980672405
  C         6.0701863962       15.6018251733       -3.7592916924
  N         6.0219307025       16.9197721790       -3.8303093206
  O         5.5850902180       18.7503100911       -2.5773369174
  H        -5.1967762863       15.2244301753       10.7730530383
  H        -4.4355929190       15.2906105430        9.2158382189
  C        -5.6812965641       13.6200174532        9.4107209940
  H         5.8376063076       16.9890505119       14.1448336262
  H         6.5431893730       15.8447578978       15.1730661910
  C         7.9906139130       16.6575751526       13.7531538819
  C        -0.8176639453        7.5949490820       18.5124486676
  S         6.3381861583       14.7600580728       -5.2504820533
  C         5.9808572092       17.7360241462       -5.0762165398
  H        -5.2006156245       13.3692071045        8.4540835468
  H        -5.8625581336       12.6727869382        9.8836795984
  C        -7.0191328986       14.3584558086        9.1227454103
  H         8.1343713194       16.4921131300       12.7137847494
  H         8.6833138684       15.9546305847       14.3704960504
  C         8.2281046172       18.0922253771       14.1817857466
  H        -0.9603077777        6.5697355802       18.2395369290
  C        -1.2350829261        7.9283064999       19.8093362463
  H         6.8042516772       17.3259140615       -5.5351478231
  H         6.1842419299       18.8322409958       -4.8493504234
  C         4.6623470273       17.4608215126       -5.7991822835
  H        -7.5075331190       13.7650803747        8.2783988874
  H        -6.9140329827       15.4009117565        8.8142481878
  C        -7.7746360121       14.3593490717       10.4475422349
  H         9.3299995330       18.3386743041       14.0791392752
  H         7.7376293231       18.7961050306       13.4970627761
  C         7.7707511478       18.2810769138       15.6194767050
  S        -1.5953111094        9.4571693973       20.4748400867
  C        -1.5581893481        6.7762875124       20.6611993600
  H         3.7316505963       17.4546676587       -5.1428871019
  H         4.6592500872       16.4973184097       -6.3464386872
  H         4.4104134079       18.2001887557       -6.5929548622
  H        -7.9434093591       13.3953167218       10.9351284291
  H        -7.3687990697       14.9734977059       11.2708524851
  H        -8.8162912319       14.7793598292       10.1524375486
  H         8.2815108064       17.5830620798       16.2816215253
  H         8.2039921694       19.2576282383       15.9011823020
  H         6.7061027768       18.2570924333       15.8650009546
  C        -2.1103999354        8.5967527624       21.9114305346
  N        -2.1088471546        7.2367525853       21.8616706468
  O        -1.2574291656        5.6009963164       20.4185476771
  S        -2.3459706295        9.3284348597       23.4805278395
  C        -2.3311717832        6.3674549418       22.9846723469
  H        -2.6731882662        5.4402978086       22.6058189848
  H        -3.1521971302        6.8279699982       23.4903124515
  C        -1.1002023979        6.2329657868       23.8162519779
  H        -0.9880244780        7.0923428732       24.4851297020
  H        -0.2727678046        6.1646497321       23.1141621066
  H        -1.0951538874        5.2785146612       24.3611840729
