352
i =
  H        -3.1259119269       14.8553763796       16.3052117130
  C        -2.9745676936       13.7710184054       16.2811608999
  H        -3.9763715208       13.3148166908       16.3923188484
  C        -2.2257771355       13.2597758464       17.5194027225
  C        -2.3542821844       13.2397272344       14.9392284362
  C        -2.9079666197       13.5910389414       18.8230637903
  H        -2.0460864392       12.1935619840       17.3979345228
  H        -1.2441575704       13.8016621482       17.5327895798
  H        -2.5854975446       12.1835983495       14.6468756088
  H        -2.6837178526       13.8282726806       14.1597764919
  H        -1.2609282776       13.4199840042       14.8941896340
  C        -2.2098706396       12.8289593069       19.9507946403
  H        -3.9594198727       13.3847634532       18.8428398608
  H        -2.7776681226       14.6628135334       18.9577957635
  C        -2.5559961246       13.2990584780       21.4219851140
  H        -2.5203585012       11.8546445589       19.7995369106
  H        -1.2041064707       12.8310143050       19.6818828210
  C        -1.5400600599       12.7698586891       22.3925915922
  H        -3.6098833978       13.0157019525       21.4391203023
  H        -2.5379003358       14.4139226480       21.5220294144
  C        -0.2829006782       13.6577458147       22.6645280480
  H        -2.0050749743       12.4959282777       23.3348865598
  H        -1.2400708736       11.8904832267       21.9767659809
  C         0.9754131192       12.9433458821       23.2294826796
  H         0.0618397996       14.1583416205       21.7779440229
  H        -0.4400280611       14.5179605048       23.3154166660
  C         1.2402893341       11.6234587013       22.5893145490
  C         0.5841387724       12.2160962921       24.4610825367
  C         2.2130374179       13.9128221292       23.2872761205
  C         0.9452621942       10.4428724507       23.3361625271
  C         1.8306462798       11.2323678509       21.4234116790
  C         0.5103133171       10.8645621150       24.5433824533
  C         0.1987117079       12.9008771901       25.6722468131
  H         2.4166273356       14.2682651624       22.3277602388
  H         2.0825204136       14.7569666834       23.9810303343
  C         3.4623547172       13.2538377065       23.7091677410
  S         1.2831644221        8.9708073416       22.6065108971
  C         1.8422989775        9.8708474434       21.2034624162
  H         2.0536866037       11.9894504165       20.7143735632
  C         0.1049598016       10.2766317739       25.7108168424
  H         0.3657924344       13.9990091389       25.7606678893
  C        -0.2194973254       12.2480391233       26.7458236793
  H         3.8138884076       12.5106301460       23.0103467448
  H         3.3865437315       12.7134268846       24.6367710003
  C         4.6986659883       14.1876010054       23.8663311213
  C         2.4092986871        9.2245440457       19.9911509011
  C        -0.3085075925       10.9007175703       26.8970674582
  H         0.0973749532        9.2239051088       25.8426701016
  C        -0.5609852192       12.6768066001       28.0173533290
  H         5.4538649295       13.8544026408       24.6227653195
  H         4.3627076135       15.0761002838       24.4249681516
  C         5.3033441444       14.7487860476       22.4863213018
  C         2.3639799633        7.8182388611       19.7173106441
  C         2.8807034926       10.0767467314       18.9122759486
  C        -0.6813058700       10.2183712922       28.2215143903
  C        -0.8216131688       11.5802039689       28.8591058054
  S        -0.7435631583       14.2267014027       28.6930146923
  H         5.7796161184       15.6178349945       22.8226046833
  H         4.6181418678       15.0553787837       21.7628004973
  C         6.4401567456       13.8410623469       21.8712130636
  N         2.0457847156        6.7963123702       20.6378276916
  C         2.6737906956        7.2449979745       18.5055664996
  C         3.2460981890        9.4525686255       17.6751701847
  H         3.1826551528       11.0435751404       19.0282126218
  C         0.4667985469        9.4164208546       28.8761074874
  C        -2.0001671133        9.3451379576       28.0537057607
  C        -1.3248495278       12.0915033154       30.0184739988
  C        -1.2327221852       13.4788124273       30.1713635824
  H         7.1721137786       14.5154587877       21.4382801177
  H         6.9560222599       13.2355504940       22.6282048420
  C         5.8801110061       12.8787529089       20.8061640975
  S         2.2105486147        5.3217932278       19.9969716903
  N         2.5278294735        5.8339959551       18.4785364157
  C         3.0979563461        7.9939157029       17.3632768925
  H         3.6490681626       10.1625497530       16.8650052184
  H         0.7826016731        8.6914766937       28.0917766686
  H        -0.0153422773        8.8173472330       29.6917562296
  C         1.6629625740       10.2630020192       29.3434826611
  H        -1.8228478470        8.5022397762       27.4756884571
  H        -2.3129300974        8.9353355735       29.0723222823
  C        -3.0995461709       10.2588381331       27.4723930366
  H        -1.5859671950       11.4308027953       30.8598023501
  C        -1.4757836029       14.2168007223       31.5034020477
  H         4.7836900074       12.9489952727       20.8422425775
  H         6.1713636881       11.8786974149       21.1093164376
  C         6.2593700417       13.1176208162       19.3606869436
  C         3.2987622679        7.2373572283       16.2049268972
  H         2.1123697663       10.8848786321       28.5257586317
  H         1.4097554254       10.9376945401       30.1850468205
  C         2.8133361439        9.4399126910       29.8645262675
  H        -2.8672006035       10.7145628099       26.5038670779
  H        -3.2436979177       11.0100134621       28.1595068132
  C        -4.3993677062        9.5577729654       27.2834274300
  C        -1.4170218598       15.6519816390       31.6698917538
  C        -1.6517158356       13.4826586280       32.7573449588
  H         5.8656661267       12.2971306293       18.7146245410
  H         5.8075520072       13.9970374104       18.8661308917
  C         7.7798927326       13.2667504606       19.0849577835
  H         3.1904030928        6.1981782655       16.2682363185
  C         3.5773383419        7.6399175001       14.8560005871
  H         3.2349534096        8.8707690906       29.0245340728
  H         2.5830816099        8.6538055444       30.5210448389
  C         3.8636996438       10.3098937944       30.5519002618
  H        -4.3212170110        8.4817573570       26.9352050885
  H        -4.6894456594        9.3749260017       28.3547526719
  C        -5.3368004063       10.2860031442       26.3566009447
  N        -1.2149186829       16.5794630351       30.6292744603
  C        -1.6330246902       16.3282535894       32.8385661387
  C        -1.7835133063       14.2202442909       33.9633767016
  H        -1.7313128181       12.3741701337       32.7337377381
  H         8.1027267678       12.6553576534       18.2699558624
  H         7.8564261442       14.2889445000       18.7614754149
  H         8.4548167930       12.9293753125       19.8632695244
  S         3.8364733832        9.2668321636       14.3700227075
  C         3.7270676813        6.6712722703       13.7382308517
  H         3.8821446663       11.2831621458       30.0065064582
  H         3.6242219015       10.5536320413       31.6048363888
  C         5.2117146818        9.6658572232       30.4411597803
  H        -4.7359414405       10.5300830532       25.5180577186
  H        -5.5785780851       11.2502883245       26.7598404774
  C        -6.5280811078        9.3878224221       26.0288409423
  S        -1.3214305114       18.0916558087       31.1759738513
  N        -1.7625876333       17.7304349622       32.6809387540
  C        -1.8793117772       15.6756989769       34.0176603603
  H        -1.9257169806       13.6775751382       34.8761287612
  C         4.2528073941        8.6774454689       12.7391757959
  N         4.1554864713        7.3062234567       12.6105590983
  O         3.6256707870        5.4714448176       13.9158589780
  H         5.8558723864       10.3386725966       30.9374048453
  H         5.4227722299        9.7223174243       29.3370013708
  C         5.3342754981        8.3725290352       31.2671551668
  H        -6.1781224119        8.4236982064       25.5759263863
  H        -7.1537144034        9.1352023221       26.8361870545
  C        -7.4682941491       10.0756264548       25.0403988770
  C        -2.1132326388       16.4429253064       35.1247910914
  S         4.5924554073        9.7101731272       11.3600125871
  C         4.1299008621        6.5104516509       11.3787531361
  H         6.2079132246        8.1994801367       31.8707761456
  H         4.4934590237        8.2497491419       31.9906604097
  C         5.2323567744        7.1873578773       30.3033287976
  H        -6.9598736607       10.3709534455       24.0602646991
  H        -7.5575468146       11.0824890603       25.4879434960
  C        -8.8572176123        9.5290350342       24.7168552436
  H        -1.6736303272       17.4007027289       35.0890140288
  C        -2.6799274084       16.1698117311       36.3685547183
  H         4.7830005412        6.9868985796       10.5864447383
  H         4.6805600550        5.6083106713       11.6106750558
  C         2.6856120655        6.3141806291       10.9023727689
  H         4.3472320495        7.2947878568       29.6501022415
  H         5.2174083801        6.2676375659       30.8300885664
  C         6.4674510480        7.0326392997       29.4313543004
  H        -9.3322000808       10.2963844556       24.1779183262
  H        -8.7475915798        8.6729140829       24.0826714634
  C        -9.7997384905        9.3618821756       25.9337176476
  S        -3.3007356762       14.6042182334       36.9184752329
  C        -2.7603733904       17.2351115952       37.3753195160
  H         2.5280620090        5.2901830742       10.4784214348
  H         1.9330723307        6.4821396100       11.6826261059
  H         2.3878331359        6.9103825710        9.9915184651
  H         6.2948365062        7.6912292225       28.4861082034
  H         6.6071073502        6.0198896801       29.2590161139
  H         7.4248300757        7.3082164049       29.9094548108
  H        -9.3642481743        8.6177076225       26.6040372516
  H       -10.7687521810        9.0252201757       25.6886548101
  H       -10.0165973128       10.3373300730       26.3938448967
  C        -3.7081890128       15.4436269798       38.4754917424
  N        -3.4551477474       16.8037921091       38.4971047389
  O        -2.4469883622       18.4037975819       37.1945023089
  S        -4.4250933460       14.6793237400       39.8523471063
  C        -3.5739559766       17.5714768800       39.7618689650
  H        -3.8802306374       18.6515183748       39.5217631090
  H        -4.3083542720       17.1303506408       40.4588242503
  C        -2.1340040335       17.5449334354       40.3873514054
  H        -1.7880423443       16.5198196713       40.6607117410
  H        -1.3952661220       18.2074887204       39.8372917906
  H        -2.1525198314       18.0598669275       41.3574531065
  H         7.8816612361       11.3277760939        3.4175618651
  C         8.4294327645       10.4054570758        3.5004808149
  H         7.7458676637        9.5517120854        3.6213579502
  C         9.2717161940       10.4817031046        4.7779703981
  C         9.3018071256       10.2185981981        2.2694411432
  C         8.3611628223       10.8515927926        6.0427368370
  H         9.6874447795        9.4925152363        5.0420804086
  H        10.1293745140       11.2036631098        4.6597256700
  H        10.1161621301       10.9135119592        2.3090435720
  H         8.8407423504       10.5670943792        1.3131961426
  H         9.6559952021        9.1081938545        2.1409949936
  C         7.5502625203        9.6426414633        6.5460000558
  H         8.9284894816       11.1219223214        6.9619749672
  H         7.6408762641       11.5236985673        5.6787156779
  C         6.8787610389        9.9007274519        7.9168788385
  H         8.0447605954        8.6869916509        6.5799801880
  H         6.7009299509        9.3950515624        5.8829475808
  C         5.5601968722       10.6977804851        7.7473600571
  H         7.6483744396       10.4557876644        8.4086275479
  H         6.8131617414        8.9799876753        8.4596216919
  C         4.3611229379        9.8189735948        7.2071578474
  H         5.2901077421       11.1025492170        8.6734913773
  H         5.8377445432       11.4663022409        7.0370625237
  C         3.0106074096       10.5268347980        6.9924212842
  H         4.1494083473        9.1515188612        8.0082821909
  H         4.5550085173        9.3345244264        6.2836632571
  C         3.2823390260       11.9096187776        6.2866320700
  C         2.5932364368       11.1990022103        8.2848244439
  C         1.8510192825        9.6679315683        6.3482073707
  C         3.1046189943       12.9907124470        7.1463025380
  C         3.8298482574       12.2926010674        5.0095440577
  C         2.6558792487       12.5522966837        8.3590043026
  C         2.1460319493       10.5558362275        9.4303021153
  H         2.1560842464        9.1205709364        5.4076656725
  H         1.6089875590        8.8555375502        7.0679243050
  C         0.5657004059       10.4088203213        6.0508060846
  S         3.4137706363       14.5003199441        6.3279794934
  C         3.9308468432       13.6155278847        4.8945043088
  H         4.0723300681       11.4668533459        4.3657417109
  C         2.3160943856       13.1087113562        9.5512779786
  H         2.1604923409        9.4718601730        9.3955662139
  C         1.7581648686       11.1290759026       10.5814330011
  H         0.9395332510       11.3278033335        5.6031481263
  H        -0.0740618094       10.5796326326        6.9914928653
  C        -0.3216732388        9.8874384512        5.0285277002
  C         4.4265719688       14.3122737431        3.7183587265
  C         1.8508941095       12.4476036295       10.7523496501
  H         2.3398579079       14.1727431732        9.5674015563
  C         1.1764073294       10.7919684936       11.7867727105
  H        -1.3547009889       10.2947286583        5.0707159381
  H        -0.3956434226        8.8718132483        5.3297863734
  C         0.2002280113       10.1222672606        3.6403167340
  C         4.3607844780       15.7455975295        3.4725272348
  C         4.8960036338       13.4839123323        2.5307763176
  C         1.3116478418       13.1765692495       11.9612934776
  C         0.9222986881       11.9082834366       12.5904601892
  S         0.8200730229        9.2926515586       12.5874078676
  H         1.1364263511        9.6087889448        3.3869709002
  H         0.3152312427       11.2175642001        3.5296519615
  C        -0.8816876269        9.7805647180        2.5799040568
  N         4.0600188554       16.6197277841        4.4740232331
  C         4.6686878143       16.3271746057        2.2388613361
  C         5.2684971716       14.1228345095        1.3349782437
  H         5.2252919925       12.4540569189        2.6456436327
  C        -0.0060129604       14.0044499186       11.6690576968
  C         2.3282909533       13.9741931526       12.6847723225
  C         0.5109404224       11.5121927842       13.8772620532
  C         0.3711051232       10.1539096135       14.0290657937
  H        -1.5499324818        9.0369241805        2.8571143107
  H        -1.4466115075       10.7260025031        2.5462803007
  C        -0.2089980195        9.4560237440        1.2769002146
  S         4.0399039938       18.1511887959        3.8030247780
  N         4.4826947208       17.6913969762        2.2843544729
  C         5.1225354227       15.5925148003        1.1136446182
  H         5.7651133656       13.4840304671        0.6418392498
  H         0.3084320950       15.0237612413       11.3220872584
  H        -0.4992531078       14.3115106503       12.5464010761
  C        -1.0947967871       13.3988941756       10.8877033836
  H         2.8190577874       14.5784692963       12.0012095109
  H         1.8471562287       14.6745942920       13.3889551172
  C         3.4433192880       13.1385441882       13.3720136328
  H         0.4260277080       12.2891160761       14.5744345711
  C         0.0538154443        9.3840617150       15.3179721173
  H         0.5828318042        8.7268636263        1.3711001233
  H         0.3928140814       10.4021212247        1.1220159283
  C        -1.2238816456        9.3035281317        0.0964308078
  C         5.2383381292       16.2386726961       -0.1236357256
  H        -0.5899949271       12.8565031397       10.0900623598
  H        -1.5362131370       12.6063069829       11.4862463065
  C        -2.1482886962       14.4430180944       10.3401192737
  H         3.9773054651       12.5982814772       12.6080212148
  H         2.9827879775       12.4709220829       14.0464261223
  C         4.4145931564       14.0661537304       14.0946095620
  C         0.0057329022        7.9745873068       15.4612114598
  C        -0.2484050423       10.1875495313       16.5301832169
  H        -1.5479653464        8.2199843083        0.1098088196
  H        -2.1404547096        9.9031202400        0.2311473810
  C        -0.7428220912        9.6331877164       -1.3178041928
  H         4.9955345866       17.2876714814       -0.0297869545
  C         5.4846813045       15.8118412507       -1.4210072971
  H        -1.6693733598       15.2189696005        9.7144935797
  H        -2.5997486836       15.0124802365       11.1169072196
  C        -3.3359411556       13.7844525305        9.6646560534
  H         4.8226700882       14.7509831525       13.3156154856
  H         3.8733048273       14.7832277338       14.7800456805
  C         5.5486744684       13.5443178099       14.9403827270
  N         0.3437104284        7.0819931986       14.4645444402
  C        -0.3777901229        7.3829521086       16.6311828191
  C        -0.5347132165        9.5391395119       17.6963514685
  H        -0.2693145835       11.2165642496       16.4426937031
  H        -1.6037193723        9.5409370452       -1.8836880492
  H        -0.0553024905        8.8837462581       -1.6946071639
  H        -0.3845023777       10.6698341757       -1.3642337209
  S         5.7274686311       14.1270991813       -1.8771850046
  C         5.7212388125       16.7137345906       -2.4999878983
  H        -3.7474244159       14.3519313490        8.8166813708
  H        -2.9913480252       12.8162836300        9.2163837491
  C        -4.5374277885       13.5226064396       10.5574951065
  H         5.9231044522       12.7075689475       14.4702331192
  H         5.0365870451       13.2141109883       15.8186912093
  C         6.6134902622       14.5700243562       15.3155994057
  S         0.0714576917        5.6148758059       15.0622906678
  N        -0.3884448694        5.9751617373       16.5825871817
  C        -0.6294258088        8.0733594718       17.8558520108
  H        -0.6486426747       10.2393578665       18.5284177117
  C         6.1463930119       14.7561513081       -3.4516075478
  N         6.1395466245       16.0783048478       -3.6241048001
  O         5.4314014325       17.9370425301       -2.3368340518
  H        -4.2273137968       12.8638402316       11.3578898361
  H        -4.9612583857       14.3972113058       11.1221406337
  C        -5.7544443154       12.8509604174        9.8189471750
  H         6.1342996136       15.4181500834       15.7714233055
  H         7.2287667943       14.1453842280       16.0983905015
  C         7.4666858232       15.1407879183       14.2081699728
  C        -0.8344335394        7.4083348246       19.0848498368
  S         6.6683351024       13.7766567251       -4.8362264799
  C         6.2145915736       16.8469430896       -4.8800444245
  H        -5.3700252026       12.2208298446        8.9278573129
  H        -6.1566938968       12.0567469339       10.4797524738
  C        -6.7256819515       13.7996551364        9.1808624231
  H         7.4303199429       14.5008751750       13.3646120693
  H         8.5437254878       15.0209252774       14.5335321583
  C         7.1390464346       16.5381790942       13.9007782066
  H        -0.4212696795        6.3728895945       19.1025590120
  C        -1.3778661607        7.7827013363       20.2619101291
  H         7.0200127015       16.3661521215       -5.4422468917
  H         6.5020565997       17.8213384452       -4.5892638010
  C         4.8341050336       16.8564975598       -5.5666912265
  H        -7.0504156459       13.3324983039        8.2467163110
  H        -6.2426356266       14.7025041303        8.9941078553
  C        -7.9588832193       14.0161443714       10.0096056791
  H         7.4644799450       16.8442912732       12.9207805127
  H         5.9825060376       16.6451844215       13.9355921739
  C         7.6468355624       17.5264825199       14.8955871407
  S        -1.8638062413        9.3721030979       20.7325303507
  C        -1.4955108103        6.7495092170       21.2744146378
  H         4.4426401242       15.8463585471       -5.6969595853
  H         5.0248045937       17.2515272592       -6.4838435790
  H         4.1147133615       17.4324103949       -4.9962173592
  H        -7.8334239801       14.6992883937       10.8668367688
  H        -8.6917647646       14.4068656012        9.3295039407
  H        -8.4218403751       13.1797344928       10.5040121716
  H         7.5228388057       17.1654407556       15.9138694153
  H         8.6690925392       17.9107241244       14.6701297546
  H         7.0235738193       18.4810346768       14.9131326422
  C        -2.2535343266        8.6631958898       22.2886884105
  N        -2.0640880533        7.3181765022       22.3585229351
  O        -1.0768002763        5.6054982165       21.0948941036
  S        -3.1815263233        9.5102058078       23.6004239296
  C        -2.3179748186        6.5024132138       23.5324652326
  H        -2.7402253190        5.5383018791       23.2141475882
  H        -3.1582464906        6.9263842323       24.2404684624
  C        -1.0104147834        6.3253477034       24.4266986944
  H        -0.8181968274        7.0661454449       25.1484805338
  H        -0.1156989339        6.1903742677       23.8380299113
  H        -1.1807052969        5.3578064748       24.8363292878
