352
i =
  H        -3.2205038412       13.0197621132       16.1758252648
  C        -2.3722392158       13.7063626761       16.3655781420
  H        -1.5268217323       13.1914638605       16.6753882085
  C        -2.8344880212       14.7295355607       17.3927489950
  C        -2.0444818021       14.2205730445       14.9925865664
  C        -3.1606977023       13.9992909359       18.7542793868
  H        -2.0846721753       15.5248228643       17.6080310014
  H        -3.7092023296       15.2609188616       17.0433923765
  H        -2.1380833672       13.3364661235       14.3034118247
  H        -2.7144671329       14.9822957047       14.6446449689
  H        -0.9505079560       14.5314706436       15.0668117041
  C        -1.9729290875       13.6955228122       19.6611496754
  H        -3.7977136458       13.1598164424       18.5462077623
  H        -3.7600308343       14.7753292722       19.2427041103
  C        -2.3503654986       13.7038094314       21.1482443206
  H        -1.4731462624       12.7832439514       19.3359566932
  H        -1.2467040517       14.5432062721       19.4917060327
  C        -1.3242956907       12.9730771674       22.0159188333
  H        -3.2404687600       13.1087736069       21.2302257586
  H        -2.5787736188       14.6668681993       21.4106937666
  C        -0.1318716903       13.9288508343       22.3630762805
  H        -1.7344318208       12.5010694699       22.9182700713
  H        -1.0519130213       12.1477394457       21.3817011986
  C         1.0900184950       13.1979425526       23.0602470634
  H         0.2532938960       14.4006658632       21.5261114025
  H        -0.5916712637       14.8165021570       22.9402595669
  C         1.4082014162       11.8745511257       22.2468468089
  C         0.6458127830       12.4212210842       24.2467785210
  C         2.3017123626       14.1258338754       23.2791881773
  C         1.0118924931       10.8366993790       23.0014576067
  C         2.0145631353       11.4892714092       21.0709430188
  C         0.5606689885       11.1135253302       24.2632413853
  C         0.2681068282       13.0332710867       25.4428846794
  H         2.5388386061       14.6063907049       22.4192259112
  H         2.0347065177       14.8476507888       24.0154446997
  C         3.5808694396       13.5491404188       24.0059886990
  S         1.2174916235        9.2293684050       22.2060515711
  C         1.9707242046       10.0988817680       20.9158086177
  H         2.4835574555       12.2363030387       20.4461303336
  C         0.1536080327       10.4571794198       25.4047826746
  H         0.2506332911       14.0725819490       25.4092930000
  C        -0.2420297965       12.4538958839       26.5433255987
  H         3.8911039689       12.7148103337       23.3611854405
  H         3.2885911854       13.0151899797       24.9489250085
  C         4.6222913886       14.5857273473       24.3985224081
  C         2.4631191323        9.4366604477       19.6427430088
  C        -0.3397444114       11.1139706628       26.5940176132
  H         0.1875993824        9.3221169309       25.3369240139
  C        -0.7293064378       12.8690897531       27.7368971659
  H         5.2659562445       14.2868191660       25.1960339314
  H         4.1903587866       15.5170073210       24.8005389333
  C         5.6256750448       15.0399799790       23.2975112783
  C         2.4167752280        8.0438404586       19.2942309819
  C         2.8134948786       10.3197068820       18.4820584829
  C        -0.8107533684       10.3991431392       27.9241735618
  C        -1.0981564170       11.7848069398       28.5689536088
  S        -0.8952631044       14.3999450725       28.5024524459
  H         6.4600650990       15.6726430901       23.6353390465
  H         5.0732552981       15.6185423138       22.5989973331
  C         6.2513268723       13.8677658746       22.4631462891
  N         2.1659274655        6.9881513088       20.2014035582
  C         2.7329742542        7.4912363069       18.0487768307
  C         3.1097012031        9.7954381299       17.2151635583
  H         3.0244471743       11.3523362007       18.6469181526
  C         0.3592018363        9.7394597271       28.7333021008
  C        -1.9381695819        9.5094825769       27.6810176126
  C        -1.4111288156       12.2366458212       29.8834106541
  C        -1.3714420223       13.5743920748       29.9417765469
  H         7.2479755100       14.2206095671       22.0907760746
  H         6.2877476337       13.0072935166       23.1775693710
  C         5.4171949481       13.4135066195       21.2482964246
  S         2.0034255174        5.5823623044       19.4073581159
  N         2.6049923668        6.1108705981       17.9821185083
  C         3.0333716616        8.3430970602       16.9576878293
  H         3.5453729670       10.5366419415       16.5254925085
  H         0.6064514682        8.7358906935       28.2205858666
  H        -0.0600555986        9.3631720025       29.7205329408
  C         1.6273032234       10.6471193392       29.0007754603
  H        -1.8469988189        8.7437823866       26.8932489657
  H        -1.9598909563        8.9126016766       28.6486740026
  C        -3.2475808104       10.1440774418       27.6490403289
  H        -1.6378779166       11.5224097689       30.5878332785
  C        -1.5741005824       14.3377812510       31.1717672629
  H         4.5456762375       14.0540750774       21.2337514103
  H         5.1285725753       12.3255108433       21.2060562132
  C         5.9551905700       13.7623678225       19.8898660650
  C         3.3371397208        7.7504691919       15.7032691390
  H         1.9759973738       11.0093216942       28.0334348401
  H         1.5344296933       11.4411582888       29.7180139068
  C         2.7746873279        9.8155819909       29.5707273717
  H        -3.1920929455       11.0327225705       26.9813535058
  H        -3.5429006592       10.5164815131       28.6505063324
  C        -4.3595433489        9.1608341463       27.1532267141
  C        -1.5721814410       15.7447275398       31.2704820167
  C        -1.8199914206       13.6568097827       32.4711343334
  H         5.2311123026       13.3589806560       19.1719595751
  H         5.9768888755       14.8232047064       19.8002187365
  C         7.2886019332       13.0819936786       19.4900169506
  H         3.1481443736        6.7384396052       15.5192842448
  C         3.6233487294        8.3162011763       14.4819262683
  H         3.3468441605        9.3893018190       28.7510244162
  H         2.3964955148        8.9376913560       30.1388656415
  C         3.7851111950       10.6493003673       30.3617416756
  H        -4.1794343631        8.7375078175       26.1571703054
  H        -4.2992544756        8.3079413631       27.8543448088
  C        -5.7722815310        9.8415343501       27.0288730100
  N        -1.4918197988       16.6049511862       30.2244810341
  C        -1.8760333589       16.3946283440       32.4329957782
  C        -2.0502341688       14.3957977514       33.6523427353
  H        -1.8144281743       12.5268108500       32.5398051173
  H         8.0645466638       13.5713329219       20.0274989389
  H         7.1805163394       12.0370687723       19.7566344921
  H         7.4536809343       13.1397946454       18.4205113290
  S         4.0577656575        9.9145385973       14.1635239134
  C         3.4167174549        7.4580730133       13.3227781580
  H         3.8474968325       11.6349063111       29.8546897147
  H         3.4104570008       10.8679479066       31.3684399133
  C         5.1799960753       10.1349386483       30.5559858491
  H        -5.8152617055       10.5738792082       27.7534361247
  H        -6.5223765953        9.0877063162       27.2774472719
  C        -6.1334194779       10.3642595090       25.6043974408
  S        -1.5094341084       18.1017003892       30.7105813165
  N        -2.0479276448       17.7624660076       32.2301026804
  C        -2.0928225658       15.8355531017       33.6612116202
  H        -2.1557378770       13.8205876143       34.5470346989
  C         4.1918983256        9.4592639281       12.4757251955
  N         3.9318810853        8.1586408739       12.2709373175
  O         2.8917965654        6.3095030967       13.2393096006
  H         5.7503598621       10.8987608754       31.0247371483
  H         5.5877724926        9.8452590414       29.5454528305
  C         5.3282522528        8.8575477612       31.4113409458
  H        -5.5209865944       11.2510204126       25.4495173284
  H        -5.8203343370        9.6889681872       24.8280940680
  C        -7.6221331860       10.7589965981       25.4193051226
  C        -2.6171372648       16.7065715081       34.7118366905
  S         4.6133705285       10.4296582949       11.1040105812
  C         3.9948098966        7.4686093636       10.9559983167
  H         6.3731791138        8.7792281967       31.5870768271
  H         4.7862702573        8.8850337291       32.3075948671
  C         5.0200274521        7.5381016238       30.6721173540
  H        -7.5846447334       11.2764906090       24.4966980371
  H        -7.9229350279       11.4872508902       26.1923030931
  C        -8.6078000904        9.5695218886       25.2901822018
  H        -2.3259234292       17.7307676595       34.5767839568
  C        -3.1097605198       16.4096585457       36.0041264233
  H         4.6602214680        8.0287874127       10.3682810958
  H         4.3742572650        6.4675105685       11.0648874113
  C         2.6186325064        7.4975864967       10.3542500895
  H         5.2013080727        7.5219216704       29.6113791597
  H         3.8842260132        7.2914232834       30.7462238451
  C         5.9114995822        6.4148254282       31.2408239705
  H        -8.2384215395        8.9200178972       24.5687861201
  H        -8.5770413856        8.9368315977       26.1573569584
  C       -10.0721981748        9.8438151418       24.8381164688
  S        -3.4705264580       14.8515157435       36.5482197484
  C        -3.2821631489       17.5048333667       37.0283256559
  H         2.5700648850        7.7236855216        9.2994979785
  H         2.0388638081        6.5108301535       10.4471533853
  H         1.9697783041        8.1661476972       10.8972946544
  H         5.8297977429        6.3577624286       32.3195766234
  H         6.9111974293        6.6657438202       30.9543394176
  H         5.7975926493        5.4844371643       30.6814256086
  H       -10.4095896478       10.8512335199       25.0589488582
  H       -10.8373490312        9.2542238079       25.3925476262
  H       -10.0858242040        9.7732285875       23.7450907103
  C        -3.9712181589       15.5550643016       38.0998766172
  N        -3.7643517423       16.8984487729       38.1701036280
  O        -3.0804002444       18.6829239322       36.9507374684
  S        -4.6025528476       14.6451253073       39.4924108562
  C        -4.0237349795       17.6375702025       39.4177786601
  H        -4.1833061873       18.6337999443       39.2252064868
  H        -4.8503928007       17.2271419698       39.9346353748
  C        -2.7897804239       17.5956942858       40.3129840525
  H        -2.6706567718       18.5877229243       40.6896760918
  H        -2.9126189956       17.1674640524       41.2108363918
  H        -1.9442244194       17.1606074359       39.8667831249
  H         6.8789842824       11.4629021899        3.0935096728
  C         7.5208927938       10.5859067089        3.1917178946
  H         6.7495404419        9.8297219820        3.4323562035
  C         8.3827719204       10.7280650370        4.4866563629
  C         8.2991171884       10.2286746827        1.9028054857
  C         7.6682926544       10.9700444297        5.8194590800
  H         9.0432806396        9.8561109777        4.4594539194
  H         8.9566100138       11.6300505441        4.3169126994
  H         8.8736440341       11.0862726016        1.6099414410
  H         7.5947638855        9.9642844833        1.1761569420
  H         9.0453575914        9.4330961796        2.0184870167
  C         6.8933391663        9.7041033365        6.4325619714
  H         8.3640708899       11.4688904863        6.5056687994
  H         6.9401132854       11.8127893949        5.7075838738
  C         6.1369225302       10.0272085441        7.6780061714
  H         7.6721629271        8.9768529211        6.6644022119
  H         6.2341359898        9.3599181296        5.6768083945
  C         4.8974052174       10.9283395015        7.4008516612
  H         6.7964842519       10.5597842150        8.3438635127
  H         5.8190724698        9.1355317332        8.2296606507
  C         3.6080338855       10.1452327202        7.1151022059
  H         4.7507049080       11.6177125383        8.2673558485
  H         5.1454635243       11.4943721749        6.5231017938
  C         2.3290844346       11.0883169483        6.9424707706
  H         3.4819584454        9.5093368170        7.9872072727
  H         3.7091838696        9.6299187274        6.1662375743
  C         2.6521554830       12.4627644170        6.2376837838
  C         1.9508949510       11.8528408939        8.1858065794
  C         1.1254543736       10.2691699256        6.3353339729
  C         2.5915897837       13.5590148232        7.0300984548
  C         2.9600982389       12.8208831820        4.8661853331
  C         2.0862756628       13.2117130915        8.2754599201
  C         1.5963266059       11.2600936557        9.3964815235
  H         1.5156753312        9.9396160005        5.3847651193
  H         0.8773103556        9.4772405724        7.0332665711
  C        -0.0446740177       11.1200362004        5.8338574926
  S         3.0925032677       14.9762703601        6.2164239973
  C         3.3910029415       14.1093478015        4.7900316826
  H         3.0477445643       12.0262413435        4.2273511516
  C         1.8206246614       13.8181216810        9.4779915006
  H         1.5799342870       10.1459624556        9.5248936061
  C         1.2829114193       11.8212535140       10.5751744083
  H         0.4023649445       11.9102728118        5.2158753724
  H        -0.6806602349       11.5802302619        6.5612804473
  C        -1.0084611214       10.3864843558        4.8740478322
  C         3.9152046488       14.7208252393        3.5649570813
  C         1.4156005985       13.1748538809       10.6895755975
  H         1.8546287125       14.8519172948        9.5193805795
  C         1.0253272592       11.4494215775       11.8552237034
  H        -1.9905100844       10.8695750425        4.9923506707
  H        -1.1896793180        9.3829333182        5.2627800656
  C        -0.5522477130       10.3062099150        3.4037139112
  C         3.9950340413       16.1124801978        3.2901130342
  C         4.3903346156       13.8402367876        2.4398691722
  C         1.1439383212       13.8885781413       12.0114797062
  C         0.9422424746       12.4999392878       12.7231070824
  S         0.7129072188        9.9569742168       12.5643946243
  H         0.2497168933        9.5646152786        3.3124212187
  H        -0.1830312725       11.2681454476        3.1229273075
  C        -1.7250300845        9.9493421376        2.5600922424
  N         3.6254598283       17.1773035215        4.1744511225
  C         4.3172438704       16.5796378378        2.0202635130
  C         4.7113113034       14.3298509716        1.1643857566
  H         4.3210099505       12.7956802766        2.5638621275
  C        -0.1657455112       14.5647229766       11.8529840206
  C         2.2349832752       14.7672353298       12.6113293529
  C         0.6155970144       12.1165941921       13.9979454828
  C         0.5280835423       10.7568126399       14.0606486819
  H        -2.3482976369        9.1483818229        2.9791224047
  H        -2.4809331166       10.7402523282        2.4491011186
  C        -1.3291260740        9.4837304655        1.2415981157
  S         3.7983229212       18.5638737393        3.3594999093
  N         4.0983181945       17.9209779548        1.8662942706
  C         4.6259428308       15.7859175589        0.9190153961
  H         5.0084555906       13.6299576399        0.4011229270
  H         0.0177638042       15.5263452570       11.4950688091
  H        -0.5472265988       14.5975004518       12.8216006944
  C        -1.2118391703       13.8654437560       10.9579737576
  H         2.5281239852       15.5454146112       11.8910872079
  H         1.8062624740       15.3860101123       13.4354529793
  C         3.3962068443       13.8680766014       13.1229186302
  H         0.4597653566       12.8882188730       14.7406191023
  C         0.1746584749        9.9398240314       15.2726528089
  H        -2.1690677116        9.3199177128        0.5881317852
  H        -0.8098767097        8.5079406544        1.3567684884
  C        -0.5180668717       10.5145872465        0.4036808577
  C         4.8599506742       16.4603934859       -0.2938249527
  H        -0.9661894989       13.7272196892        9.9224673046
  H        -1.3311854644       12.8349349879       11.3997774144
  C        -2.5496826030       14.6631568254       10.8937144097
  H         3.7347938384       13.1434173077       12.3549014096
  H         2.9981302193       13.2114419421       13.9159961504
  C         4.5668267163       14.7355984983       13.6522025195
  C         0.0596770714        8.5693660551       15.3500496120
  C        -0.0183906963       10.6829465923       16.5780313790
  H        -0.3494536817       11.4874650746        0.9422926411
  H         0.5055470854       10.2072505079        0.3408691513
  C        -1.0602515961       10.8254415953       -1.0075754109
  H         4.8421327648       17.5104503768       -0.3538592068
  C         5.0749370730       16.0237210553       -1.5894005590
  H        -2.4181650289       15.5524904644       10.2814675110
  H        -2.8645819870       15.0393211123       11.8610178128
  C        -3.6218899891       13.8267021178       10.2327901577
  H         5.1507509239       15.0311768806       12.8529695232
  H         4.2048847639       15.4758952599       14.2713924400
  C         5.3111312519       14.0007703484       14.7635572428
  N         0.3207461916        7.7130639410       14.3055882152
  C        -0.1404044564        7.9158892765       16.5174248431
  C        -0.4795451995       10.0120705120       17.7258587168
  H         0.1086897892       11.8089815996       16.6945655316
  H        -0.4190968288       11.6045841543       -1.4370510981
  H        -2.1588704200       11.1200155900       -0.9449870023
  H        -0.9797218336        9.9163735667       -1.6046467660
  S         5.2957487111       14.3128126372       -2.0730883084
  C         5.2133668688       17.0014011944       -2.7701264102
  H        -3.4783672440       13.6696261313        9.1818691722
  H        -3.7371965763       12.8906071850       10.8555459419
  C        -5.0245972139       14.5078398056       10.1231677472
  H         5.2730045895       12.8887887011       14.4228927455
  H         4.7232294901       14.1297703233       15.6200930362
  C         6.7512627714       14.5674851594       14.7825686583
  S         0.1756722087        6.2131939746       14.7807019297
  N        -0.0536028765        6.5369600975       16.3456324810
  C        -0.5359405349        8.5367255200       17.7378988588
  H        -0.6937694835       10.6206517685       18.6178377945
  C         5.5892344575       15.0284317380       -3.7197699023
  N         5.6289596585       16.3588497741       -3.8641112085
  O         5.0003415056       18.1962168890       -2.5975357555
  H        -5.3231518684       14.9388412595       11.0738527278
  H        -4.9321681484       15.3704072631        9.5007650231
  C        -6.0716664395       13.4909947944        9.6596682237
  H         7.3571951226       13.6311526966       14.8604770554
  H         7.0221435071       15.1304767459       13.9223946494
  C         7.0945186020       15.4665549067       15.9305786811
  C        -0.8495172366        7.7696490382       18.9005988691
  S         6.1498407904       14.1119230753       -5.0678333965
  C         5.8542801512       17.1448025961       -5.0681372401
  H        -5.7910708197       12.8763360812        8.8251835207
  H        -6.1274088874       12.8376452169       10.5068160938
  C        -7.5050514361       14.0818788476        9.3383723260
  H         7.6296369764       14.9518683288       16.6392315679
  H         6.2229031939       15.8055634764       16.3381236087
  C         8.1063250433       16.5512463097       15.4351342595
  H        -0.5576012445        6.7586399151       18.7445218601
  C        -1.3966705181        8.0809036220       20.1094592724
  H         6.6266444210       16.6246530595       -5.5933369397
  H         6.3003249659       18.0466751421       -4.7884036561
  C         4.6074796257       17.3455912949       -5.8296216135
  H        -7.8192785642       13.7873366841        8.3251314494
  H        -7.3237367988       15.1945434413        9.2494704493
  C        -8.3435377113       13.6452516699       10.5498861248
  H         8.6604817533       16.9761270846       16.2734313066
  H         8.8727852287       16.0535384966       14.9886269324
  C         7.5317369616       17.7410263529       14.5902663582
  S        -1.9979044982        9.5917124732       20.6527747841
  C        -1.4595676256        7.0678348980       21.1540244539
  H         4.8479846133       17.7520282315       -6.8270370975
  H         3.9278200426       18.0093888583       -5.2434366924
  H         4.0981244050       16.4860669342       -6.0606243937
  H        -8.8752972008       12.7764447666       10.1637714873
  H        -7.6552499758       13.5098113418       11.3997406897
  H        -9.0141747716       14.3764916497       10.9185157550
  H         6.6836308137       17.5469002938       13.9798208885
  H         7.2066869582       18.3955660146       15.3371714991
  H         8.2847425471       18.1376813057       13.9253257164
  C        -2.2787727604        8.8844373432       22.2044963150
  N        -2.1384222166        7.5544985835       22.1874057868
  O        -1.3098359858        5.9026695635       20.9703602554
  S        -2.9867634279        9.7101706650       23.5938233027
  C        -2.3676322707        6.7314475608       23.3539092163
  H        -2.4714118516        5.6710293009       22.9745583449
  H        -3.3153251215        7.0441540191       23.7687660434
  C        -1.0918369078        6.8611093168       24.1860353879
  H        -0.2372967073        6.3612097758       23.7338778671
  H        -1.2488764935        6.4811488019       25.2236535525
  H        -0.7638203845        7.9218297608       24.2474231722
