352
i =
  H        -2.8328076343       15.3037992491       16.2561125937
  C        -3.0120566955       14.2251479491       16.3672704863
  H        -4.0588297299       14.0497979978       16.6505766635
  C        -2.0654377767       13.5722769411       17.4184172368
  C        -2.7565562419       13.5221777113       15.0120556366
  C        -2.6732221992       13.3639032404       18.8192695937
  H        -1.7196538794       12.5835074712       17.0185360402
  H        -1.2120008493       14.2350112819       17.6120937409
  H        -3.1642833527       12.5415627305       15.0115575728
  H        -3.2129157945       14.0890539279       14.1333198586
  H        -1.6539411076       13.3753350457       14.8246684983
  C        -1.6100585580       13.2138182226       19.9095167583
  H        -3.4289578600       12.5577529434       18.8008384987
  H        -3.2633621420       14.2005225083       19.1672654198
  C        -2.1693367088       13.3435280848       21.3334535193
  H        -1.2246866083       12.2188250980       19.8355512254
  H        -0.8126117897       13.9062908121       19.8236619076
  C        -1.2160347199       12.8261583101       22.4315676225
  H        -3.0990224863       12.9302360253       21.5157287400
  H        -2.3648918483       14.3877429281       21.5119173065
  C        -0.0040311655       13.7726730764       22.5330062564
  H        -1.8130385793       12.7530194206       23.3411970418
  H        -0.9819437192       11.8790003811       22.1100448093
  C         1.2406536530       13.2320480371       23.3579608028
  H         0.3740271174       14.1215466693       21.4955075492
  H        -0.3258932737       14.7185206636       23.0966129016
  C         1.6102937377       11.8937027042       22.5860714809
  C         0.8527527003       12.4692283256       24.5758289395
  C         2.4145071056       14.2377461821       23.4821262585
  C         1.4445513902       10.7718861162       23.3941691133
  C         2.0617666442       11.5670500683       21.2795932307
  C         0.9215396874       11.1242569721       24.6806351014
  C         0.4105298989       13.0448666030       25.7301497354
  H         2.6206505542       14.6177893328       22.5008343399
  H         2.0852816042       15.1159975636       24.1125952544
  C         3.7336582727       13.7019936296       23.9991598500
  S         1.8447712496        9.2988528049       22.5901570614
  C         2.2273817982       10.1898991449       21.1330214505
  H         2.0382525553       12.3150594836       20.5343495647
  C         0.6070894063       10.4680125734       25.7878527297
  H         0.5368891223       14.0657742180       25.8229481192
  C         0.1269714605       12.4328988177       26.9046620590
  H         4.0715548602       12.8745112710       23.3820685926
  H         3.6638784469       13.2119289016       24.9860339724
  C         4.7983718135       14.8289738001       24.1740974922
  C         2.6305810811        9.6007614607       19.7887487873
  C         0.2213066325       11.0957513596       27.0024609693
  H         0.9213840201        9.3876119368       25.8348124038
  C        -0.2654168671       12.7544127885       28.2000427920
  H         5.3880744768       14.7285743779       25.1196025639
  H         4.3273104712       15.7028054942       24.5234528999
  C         5.5946471204       15.2050757559       22.9396032345
  C         2.5289784630        8.2181095751       19.5721110933
  C         2.9948654888       10.4255584142       18.6294170774
  C        -0.1903597354       10.3112844912       28.2443053423
  C        -0.3859874934       11.6508971709       29.0057278540
  S        -0.7172067933       14.2432550124       29.0249596283
  H         6.4375325959       15.8166885893       23.2573837974
  H         5.0811343564       15.8020952244       22.1843058566
  C         6.2559146639       13.9786305917       22.2937562028
  N         2.1761752181        7.2094388261       20.4533021643
  C         2.6380412259        7.6670833687       18.3173645235
  C         3.3174501517        9.9220967359       17.3525317326
  H         3.1617505835       11.5271196942       18.7532108910
  C         0.8941117561        9.4427397073       28.8160654895
  C        -1.4673222885        9.5302543187       27.9386722509
  C        -0.6735469022       12.0396404022       30.3704538085
  C        -0.8800480412       13.3854745299       30.5214273426
  H         7.2704443842       14.1892836057       22.0944058463
  H         6.3739517542       13.1711408301       23.0848414457
  C         5.5135013973       13.4503415603       21.0807847554
  S         2.1243979010        5.7427555615       19.6744002914
  N         2.4421381341        6.3018633133       18.2197083562
  C         3.1203027252        8.4463897298       17.2189825274
  H         3.7542213084       10.6170196147       16.6491616673
  H         1.1162112234        8.7121008568       28.0587586557
  H         0.4694377326        8.9002981325       29.6556344305
  C         2.1583883791       10.1815095307       29.0843681814
  H        -1.2841058618        8.7879710862       27.1634052370
  H        -1.8480906016        8.9704075415       28.7284364227
  C        -2.6011425788       10.3405596128       27.4545034576
  H        -0.7942696838       11.2304455778       31.0133901011
  C        -1.3389517519       14.0451435072       31.7759977920
  H         4.5052987102       13.4731363354       21.1810733588
  H         5.7427142326       12.3852022461       20.9143305596
  C         6.0127053135       14.1401818074       19.8385516875
  C         3.3558391860        7.8248663771       15.9832207857
  H         2.7123991724       10.4050620902       28.2206744415
  H         1.9391609683       11.0466163758       29.6336902877
  C         3.0892353442        9.2712198888       29.7725067073
  H        -2.2931992366       10.8780044384       26.5540591958
  H        -2.7842966863       11.0566370388       28.2456115227
  C        -3.9105563343        9.5613164802       27.1633377883
  C        -1.5083006766       15.4411620719       31.9729305397
  C        -1.6283962797       13.1843817493       32.9628145577
  H         5.3926329470       14.0568877216       19.0327250754
  H         6.0268864419       15.2133895061       20.0196948146
  C         7.4556120700       13.7840378575       19.3755522692
  H         3.2111720326        6.7541355047       15.9980921501
  C         3.7332512677        8.3072795702       14.7395700095
  H         3.2373752514        8.4582241944       29.1358404080
  H         2.6499912990        8.7402854782       30.5464341718
  C         4.3976744493        9.8618353121       30.2209678984
  H        -3.6206035123        8.7029192363       26.5365756337
  H        -4.4239107204        9.2920383743       28.1093903823
  C        -4.8407450709       10.3875338689       26.3014972402
  N        -1.3076925657       16.4225579260       31.0611679680
  C        -1.7929095813       16.0051035016       33.1865309523
  C        -2.0409543868       13.7188509094       34.1287208211
  H        -1.7761251972       12.1079825169       32.7541717637
  H         7.8633601381       12.8093232829       19.6068164621
  H         7.5671740253       13.8210741097       18.2826159515
  H         8.2008483610       14.3569076682       19.9469782409
  S         3.9966481394        9.9219403636       14.2821783517
  C         3.8526507960        7.3520340543       13.6274878788
  H         4.7473369793       10.5224867441       29.4828738628
  H         4.2611224254       10.5069920918       31.1062937945
  C         5.4498854988        8.8815564057       30.5417806623
  H        -4.3097168534       10.7464946546       25.4020790280
  H        -5.1901622662       11.2544099720       26.8989447470
  C        -6.0640891174        9.5324296987       25.9125970669
  S        -1.3982679756       17.9077169645       31.6980024016
  N        -1.8526646026       17.4472349665       33.1746378235
  C        -2.1320140847       15.2103254930       34.3229036789
  H        -2.2325486369       13.0489002484       34.9707130265
  C         4.3371696810        9.3707329776       12.7113269003
  N         4.2854878620        8.0349163710       12.5635014755
  O         3.6408198664        6.1490623353       13.6616496362
  H         6.2955283724        9.3556494860       31.1096433868
  H         5.8307585393        8.5971593679       29.5708109928
  C         5.0169713369        7.7206525175       31.4459412528
  H        -5.7764406104        8.6900605318       25.2826632236
  H        -6.3546650089        9.2634749549       26.8978105039
  C        -7.1491562420       10.3863280774       25.1340151343
  C        -2.4527504516       15.8368338837       35.5548857673
  S         4.5121592284       10.3403331200       11.2438921694
  C         4.4399295074        7.3945424244       11.3465682789
  H         5.2346296071        8.0370651895       32.4402357628
  H         3.9858580982        7.4332261428       31.5390179421
  C         5.8280238422        6.5256308484       31.2759899736
  H        -6.6735839180       10.5118157243       24.1613832956
  H        -7.2124167632       11.3855590191       25.6349066531
  C        -8.5095179048        9.7806397411       25.1668184920
  H        -2.3492114577       16.8432380441       35.5013169459
  C        -2.9454933912       15.4320083385       36.8016417549
  H         5.2228328243        7.7625458216       10.6380169491
  H         4.7772049965        6.3916874377       11.5062614695
  C         3.1071771795        7.1192651761       10.6377402596
  H         6.8371891750        6.8502685906       31.0940629099
  H         5.4257517825        5.9370464871       30.5052928942
  C         5.8233217134        5.6119510889       32.5482871223
  H        -9.0610435653       10.1319820097       24.3020825373
  H        -8.4278960305        8.6686270251       25.1062525153
  C        -9.3284335407       10.1569919097       26.3375730233
  S        -3.5558162090       13.9359002885       37.2242619556
  C        -3.0123884627       16.5532250302       37.8110163595
  H         2.8709976144        7.8849635205        9.8527283111
  H         3.2085515283        6.2202911046       10.0503636857
  H         2.2862639753        7.0234238815       11.2804437350
  H         6.5822798059        5.9731973934       33.2153601950
  H         6.0259321779        4.5648670167       32.2309763415
  H         4.8382115928        5.6134387547       33.0060271224
  H        -9.2660305257        9.3674866709       27.0495927879
  H       -10.3929359386       10.0326945008       26.1486791087
  H        -9.0826504248       11.0819443063       26.7480827779
  C        -4.0332630267       14.7896385525       38.7366875005
  N        -3.8128375096       16.1416768256       38.7696863168
  O        -2.7308569480       17.7281847343       37.5849879443
  S        -5.0911785349       14.1693267244       39.9928074047
  C        -4.1421513334       17.0473370582       39.8505411600
  H        -4.3224392708       18.0049297367       39.4303475341
  H        -4.9841232339       16.8637882114       40.4108798195
  C        -3.0354169235       16.9839236339       40.8731910605
  H        -2.1675674579       17.6518421405       40.7578808691
  H        -3.3487739098       17.2844319432       41.8444017446
  H        -2.6257328122       15.9668330139       40.9031079720
  H         7.3896393417       10.9700164270        3.3629295669
  C         8.0275055138       10.0684891909        3.3858273709
  H         7.4470168595        9.1353133130        3.3321600138
  C         8.8537287011       10.1780174501        4.6670782807
  C         8.9624781364       10.1977311933        2.1387582826
  C         8.0096226041       10.4454775560        5.9180017214
  H         9.5925195039        9.4172139482        4.8731235584
  H         9.3978693858       11.0877961600        4.5227048864
  H        10.0048956778       10.3268810569        2.2958918357
  H         8.5819747498       11.0029889124        1.5043795073
  H         8.8209410647        9.2582731813        1.5640151578
  C         7.3253515366        9.2436456541        6.4794552079
  H         8.6531859244       10.8037554537        6.7306581091
  H         7.3138373017       11.2467250917        5.7815246124
  C         6.6293941036        9.5192715193        7.8116592165
  H         8.0688505212        8.3732446858        6.6228500433
  H         6.5127801234        8.8668978775        5.8938920439
  C         5.3673349893       10.4138903889        7.5889463434
  H         7.3389516782        9.9815093574        8.4537982010
  H         6.2865161794        8.6533028620        8.3768968745
  C         4.1026012293        9.7351922399        7.1663209958
  H         5.1905741561       10.7436701070        8.6467125505
  H         5.5443300368       11.2580496457        6.8622753040
  C         2.9281591484       10.7046505460        6.8894924663
  H         3.8919053235        9.1198742201        8.0318557197
  H         4.3949834493        9.0838681957        6.2695979580
  C         3.3644798952       12.0028922278        6.2163196196
  C         2.3956176333       11.4263294500        8.0984774024
  C         1.6650856947        9.9484441854        6.2231138790
  C         3.1353030878       13.1311597404        7.0230263298
  C         3.9193082498       12.3027577304        4.9904937064
  C         2.5264998417       12.7580595664        8.2111238068
  C         1.8382286656       10.8568696967        9.2316089357
  H         1.9895395277        9.4199917827        5.3576925136
  H         1.3699910304        9.1279975204        6.8537483638
  C         0.4196936719       10.8925301703        6.0783486165
  S         3.5383670604       14.5796842621        6.2630109485
  C         3.9156172011       13.6567676271        4.8441732313
  H         4.1701380729       11.4935022628        4.2944718878
  C         2.1690020159       13.4360158584        9.3960504799
  H         1.7384898983        9.7721817641        9.2434892755
  C         1.5575756774       11.4813258959       10.3768593829
  H         0.4903643824       11.9413883190        5.7406778916
  H        -0.1498137946       11.0371831044        7.0466488011
  C        -0.5230576992       10.2333667925        5.1193797834
  C         4.2989558320       14.3850503338        3.6019811601
  C         1.6121186336       12.8381384452       10.5027775225
  H         2.2763736864       14.5275817653        9.5116361635
  C         1.1523711687       11.0618932145       11.6232792182
  H        -1.5107216478       10.8249559028        5.1493599231
  H        -0.7525670786        9.2496129499        5.4402222402
  C         0.0172669654       10.1670468625        3.6705875330
  C         4.3311784820       15.8183474366        3.3900422935
  C         4.8356625444       13.6497657755        2.4764136838
  C         1.2000983167       13.5197317510       11.7909754775
  C         0.9294418304       12.1702100717       12.4449352708
  S         0.7197758127        9.5640811490       12.2701988042
  H         0.5515949729        9.1833821868        3.4233609694
  H         0.7965395727       10.8731729814        3.5455447968
  C        -1.0845540963       10.4191939096        2.5956450581
  N         3.9934576981       16.8247149796        4.3350503070
  C         4.5059113150       16.3989210958        2.1465823298
  C         5.1018791874       14.2063803477        1.2147335844
  H         5.1554161095       12.6014253280        2.6321433353
  C        -0.1341560780       14.2679550000       11.6436135289
  C         2.3247253276       14.3311057322       12.5672416225
  C         0.6268735204       11.7012202703       13.7533188354
  C         0.3885179368       10.3737427877       13.7820609570
  H        -1.7190150332        9.5521530855        2.6715973572
  H        -1.6771225786       11.3099675741        2.8719741962
  C        -0.5545174353       10.4341115066        1.2152595480
  S         3.9394030672       18.2724049657        3.6175487058
  N         4.2521465977       17.7857748512        2.0886370364
  C         4.9102365267       15.6506240606        0.9707058581
  H         5.6696262263       13.6888786418        0.4778189008
  H        -0.0557156677       15.3292599381       11.4677066441
  H        -0.6026800631       14.3741211980       12.6452311794
  C        -1.1854316732       13.5077963610       10.7642101489
  H         2.7923517672       15.0862030838       11.8750403088
  H         1.7968222446       14.9715447016       13.3003584192
  C         3.5316577523       13.5349598158       13.2046350089
  H         0.5219473901       12.4759793636       14.5192693015
  C         0.1336021940        9.6181022673       15.0962530223
  H         0.3991142388        9.9549122983        1.1340409105
  H        -0.3866899954       11.4229425768        0.8935707531
  C        -1.3656280748        9.5911611864        0.1770833822
  C         5.1115352639       16.3009959328       -0.2768328054
  H        -0.8686002453       13.5232608009        9.7562654424
  H        -1.2784454489       12.5150801475       11.1118810485
  C        -2.6461084412       14.1034309341       10.7692617463
  H         3.9859865080       13.0746693038       12.3203251787
  H         3.2726493528       12.7190200745       13.9116089671
  C         4.6011785026       14.3301224203       13.9183343091
  C         0.0051199920        8.2757303675       15.2975875138
  C        -0.0944862610       10.4391543880       16.3209390214
  H        -1.1672150851        8.5064995526        0.1229924602
  H        -2.3309074963        9.4201691891        0.5707600957
  C        -1.4048702271       10.2026158223       -1.2460664765
  H         4.9133992154       17.3382905070       -0.2533725623
  C         5.3420913343       15.8108825953       -1.5438955587
  H        -2.7642384553       14.8554254778        9.9378440551
  H        -2.8633334206       14.6482644845       11.6903958546
  C        -3.5860030299       12.9841706648       10.6266337466
  H         4.9384307653       15.1265202604       13.2292978378
  H         4.1952590894       14.9086976095       14.7133958290
  C         5.7396789580       13.4391891821       14.3955012839
  N         0.2539601155        7.3531692412       14.2732629526
  C        -0.3259669541        7.6946730666       16.4685818118
  C        -0.3883122193        9.8285579060       17.5829518414
  H        -0.0286409007       11.5775262441       16.3364543990
  H        -0.4469879048       10.4820670619       -1.6649915216
  H        -2.1052623516       11.0301609545       -1.3190495354
  H        -1.9284578981        9.4546118965       -1.9075103305
  S         5.4515128843       14.1251122242       -2.0362840104
  C         5.4735785965       16.8211139313       -2.6356594396
  H        -3.2874692826       12.3365240139        9.7720167920
  H        -3.5681505796       12.3546160548       11.5129358953
  C        -5.0130092764       13.5013083605       10.3462367036
  H         5.7810499452       12.6355729335       13.8048539536
  H         5.4453797340       13.0277942015       15.4072831623
  C         7.0608715770       14.1223548021       14.6161472154
  S         0.1058966149        5.8412556649       14.9093195373
  N        -0.2492291009        6.3512053295       16.3715109259
  C        -0.4859333974        8.3569401416       17.6930853247
  H        -0.4862045290       10.4826709483       18.4663160804
  C         5.7086691247       14.8311445320       -3.6393361653
  N         5.7534764696       16.1705391983       -3.7628846210
  O         5.4473106939       18.0495914841       -2.3997910180
  H        -5.3950289127       13.7125749886       11.3145626028
  H        -4.8728954127       14.5338299804        9.9809568942
  C        -5.9142722222       12.6793095783        9.4446827842
  H         7.7322305920       13.3406024503       14.9593741216
  H         7.3359179661       14.6234949552       13.7614409569
  C         7.0056597558       15.2440522217       15.7368304137
  C        -0.7313911728        7.5868861549       18.8880874984
  S         6.4917140057       13.8318265531       -4.9002776000
  C         5.9554097534       16.9477131896       -4.9884521297
  H        -5.3106810370       12.3081961664        8.6092734608
  H        -6.3542421958       11.8008561500        9.9822623088
  C        -6.9975375806       13.5584504825        8.9717941182
  H         7.8240630388       14.9346488614       16.3966572595
  H         6.1329728431       15.1947054805       16.2991134200
  C         7.2299340709       16.5652211400       15.0707162379
  H        -0.6113248891        6.5539220631       18.9236284907
  C        -1.0385098448        7.9191987588       20.1680672066
  H         6.3947015139       16.2865018593       -5.7608311726
  H         6.5828480556       17.8265160967       -4.8168912022
  C         4.6619934724       17.4190781066       -5.6482999131
  H        -7.5829996746       13.0066068451        8.2436214249
  H        -6.5860018471       14.4277723206        8.4082457956
  C        -7.8985970932       14.0149506310       10.1258233912
  H         6.4625608516       16.7937609047       14.3878282189
  H         7.1852023320       17.3770372957       15.8082707066
  C         8.5192109016       16.7496597191       14.2614174570
  S        -1.3376067245        9.4665035337       20.8762858015
  C        -1.0684565642        6.7575695008       21.1938306380
  H         3.9016800460       17.8362015761       -4.9561146129
  H         4.1396991237       16.5394179265       -6.1453428786
  H         4.7690054534       18.1842612663       -6.4987415317
  H        -8.9989472269       13.8511223750        9.9990192616
  H        -7.7235195188       13.3104786393       10.8865658865
  H        -7.7122370812       14.9557913355       10.4971846073
  H         8.8267895775       17.8399085911       14.1613815857
  H         9.2421815418       16.2944688698       14.8901170049
  H         8.5677848897       16.2486660033       13.3240698261
  C        -1.4830114386        8.6086590617       22.4001962721
  N        -1.5171273643        7.2612510536       22.3618684320
  O        -0.9742825983        5.5348656188       20.9508348287
  S        -1.7019950905        9.3448815721       23.9103292119
  C        -1.9013302036        6.4954497659       23.5637478483
  H        -2.3036243649        5.6146209471       23.1748403226
  H        -2.7619130842        6.9505231493       24.1650736057
  C        -0.6225732417        6.0981675041       24.3134066314
  H         0.1936141035        5.9647997535       23.5483084039
  H        -0.7600749589        5.0831460529       24.7668316622
  H        -0.3432584119        6.8188539423       25.0651463739
