352
i =
  H        -3.3893525403       14.7045715447       16.1473540532
  C        -3.0065685724       13.6738280206       15.9896504718
  H        -3.9223740245       13.1077429022       16.1026625922
  C        -2.1125378989       13.5132187131       17.1025363437
  C        -2.5023819548       13.4909309963       14.5169724220
  C        -2.7110339063       13.7307558460       18.5336076548
  H        -1.5924977378       12.5145900485       17.3011220649
  H        -1.2600278480       14.1216253469       17.0166430994
  H        -3.2647846674       13.7314856099       13.8087340326
  H        -1.5658846901       13.9516898687       14.4557537576
  H        -2.1826207517       12.5581321781       14.2136623987
  C        -1.7430353024       13.5015046343       19.6628033701
  H        -3.4832389608       13.0334323758       18.7141687186
  H        -3.0808323828       14.6848149882       18.7407916450
  C        -2.2189824082       13.5510159337       21.1114435155
  H        -1.3859709238       12.5640755312       19.5084485894
  H        -1.0399292150       14.2600530194       19.5509819531
  C        -1.2900765144       12.9867263676       22.2210403705
  H        -3.0746246962       12.9613193001       20.9516770122
  H        -2.5438277371       14.4985083937       21.3169601459
  C        -0.1384039578       13.9077906593       22.6112226923
  H        -1.9094072820       12.7655057113       23.1414813733
  H        -0.9651806031       12.0475183873       21.8499027940
  C         1.0990046171       13.2186804432       23.2618478493
  H         0.2658263760       14.4835711178       21.7880128252
  H        -0.5485293667       14.6371613501       23.2644366928
  C         1.4973796622       11.9436676457       22.5770525170
  C         0.6377125197       12.5244638472       24.5041721572
  C         2.2083394343       14.1494852743       23.6147788138
  C         1.2942328329       10.8160996150       23.3578722325
  C         1.9322098528       11.5345253827       21.2943232045
  C         0.6930923035       11.2088402446       24.6059410948
  C         0.0800302757       13.1788372953       25.6150566694
  H         2.3066541564       14.6770543989       22.7057690280
  H         1.8840388786       14.8580413808       24.3135978582
  C         3.5089907436       13.4296175665       23.8501881032
  S         1.7771093907        9.2811056855       22.7643481454
  C         2.1145192089       10.1052810922       21.2597825681
  H         1.8548621959       12.2367467997       20.5269329612
  C         0.3258606907       10.5703908005       25.6884732884
  H        -0.0638400536       14.2147453367       25.5150621640
  C        -0.2994209178       12.4813189960       26.7403735412
  H         3.6325740693       12.6440214731       23.2075097717
  H         3.4815855069       12.9306485926       24.8086188699
  C         4.7992859039       14.3200141532       23.7338534726
  C         2.2987413421        9.3051632649       20.0020688709
  C        -0.1734307444       11.1427033203       26.8288497692
  H         0.5075697107        9.5441859605       25.7068786812
  C        -0.7364155726       12.8566592430       27.9898069409
  H         5.6564781429       13.9014500885       24.4037015141
  H         4.7098982439       15.4469722621       24.0224756086
  C         5.4563253754       14.2618832970       22.3618140248
  C         2.2453493703        7.9286837250       19.8781328366
  C         2.6967871833       10.0461228742       18.7138478194
  C        -0.4981754921       10.4688594425       28.0768561912
  C        -0.8276928743       11.7695186711       28.7971464080
  S        -1.1551152210       14.3432408112       28.7518705664
  H         5.8539992416       15.3036325652       22.1699243930
  H         4.6723521664       14.3282605471       21.5394345752
  C         6.4860788944       13.1486211572       22.1833624853
  N         2.0658170037        7.0107053236       20.8649193212
  C         2.4416790475        7.2358779712       18.6434688121
  C         2.9840544423        9.3571373101       17.5988436943
  H         2.6690894670       11.1788177192       18.8500746724
  C         0.6680976650        9.5805692581       28.7145432624
  C        -1.7955326575        9.6484314500       27.9246622648
  C        -1.2765017741       12.0603241281       30.1283718030
  C        -1.4284602409       13.4919809553       30.2853192454
  H         7.1388031244       12.9271358471       23.1470048688
  H         5.8483752228       12.1766669769       22.1402763340
  C         7.3936416459       13.2867803025       20.9945501466
  S         2.0217325322        5.4746569908       20.2817606261
  N         2.3352172020        5.8820732048       18.7176746382
  C         2.7957752529        7.9205248733       17.4798308967
  H         3.4932231598        9.6485012791       16.5891687324
  H         1.1255626290        8.9275762355       27.9322759956
  H         0.1168358334        9.0216542442       29.5126519501
  C         1.8102562580       10.3456786669       29.4164543478
  H        -1.4685395587        8.7446696983       27.2998048943
  H        -1.9668141962        9.0217117121       28.8822772532
  C        -3.0228046815       10.3537427729       27.4293758671
  H        -1.3247852365       11.2400637767       30.8347681174
  C        -1.6427726684       14.2655221370       31.5796142830
  H         7.9853764695       12.3154962213       20.8405613527
  H         8.1365802132       14.0627096630       21.0995053963
  C         6.6530823506       13.4792476239       19.7105039620
  C         3.1024259376        7.1337725432       16.3571590056
  H         2.3402969893       10.9299131938       28.5720839688
  H         1.5570707120       11.1097846817       30.2647924449
  C         2.9169675564        9.3455711537       29.8768676259
  H        -2.7952577575       10.9301913541       26.5075982222
  H        -3.2240933136       11.2596261812       28.1662225941
  C        -4.3393834257        9.5793033807       27.2447202256
  C        -1.8738645160       15.6353430007       31.6977459554
  C        -1.9773095984       13.4466426441       32.8169695838
  H         5.8358041045       12.7206360212       19.4679747692
  H         6.4512987614       14.5493026870       19.6360273340
  C         7.6821855827       13.2553635499       18.6463142745
  H         3.1168297725        6.0626479171       16.4011331642
  C         3.3838205657        7.4590188997       15.0535217611
  H         3.4058846004        8.8470926480       28.9584822155
  H         2.4015707565        8.5697785657       30.5574316964
  C         4.1497103496       10.0261097501       30.5980533918
  H        -4.2697938702        8.6007546113       26.5471068529
  H        -4.5610170965        9.1242925435       28.2896285024
  C        -5.3836759598       10.6263718409       26.8357946978
  N        -1.5872899270       16.5342815639       30.6567862124
  C        -2.2852900374       16.2261050127       32.8284277331
  C        -2.4342486277       14.0541894619       33.9848210097
  H        -1.7502486623       12.2952181416       32.7939096711
  H         7.1818905667       12.8711241214       17.7197110255
  H         8.0938844382       14.1626722107       18.2637192125
  H         8.5153226981       12.6889522743       18.8507138424
  S         3.6852859289        9.0848054873       14.3064829002
  C         3.6077474091        6.3466816413       13.9889840341
  H         4.3136999804       10.9807198126       30.3410885500
  H         3.7179582795       10.1129221149       31.5162493275
  C         5.4507031275        9.1985657292       30.5151006622
  H        -5.0721873450       11.2522054951       25.9587220387
  H        -5.7553166000       11.1692429751       27.7034564105
  C        -6.5842014850        9.8835098242       26.1281401875
  S        -1.5824315105       18.0063541666       31.3170818192
  N        -2.2112726350       17.5967167579       32.7891972857
  C        -2.5434367066       15.5247421155       34.0206367303
  H        -2.4963768344       13.4097694854       34.9280057331
  C         3.8978275798        8.2904416157       12.7800057534
  N         4.0406635016        6.8123035416       12.7950537779
  O         3.5190317772        5.1702574015       14.2319747488
  H         6.2706479767        9.6026496852       30.8427688539
  H         5.5852945356        9.0761677368       29.5671278843
  C         5.4098609404        7.8634017290       31.3433381174
  H        -6.0922119025        9.1309281622       25.5770587708
  H        -6.9767748589        9.2825897167       26.9409965590
  C        -7.4214153530       10.8164199895       25.3190732649
  C        -2.8289455181       16.2501862334       35.2186999191
  S         4.4326601338        9.1058028875       11.3195041388
  C         3.9538799090        5.9994133183       11.5484143865
  H         5.5012430194        8.0734856462       32.2781009118
  H         4.4334025661        7.4229623167       31.0809830583
  C         6.3637181909        6.8696897919       30.8817882500
  H        -6.8433476241       11.3270066345       24.3775154450
  H        -7.7605127507       11.7372658275       25.8760705223
  C        -8.6087028121       10.1863045168       24.6744475452
  H        -2.6739763847       17.3561607070       35.2194618400
  C        -3.2451118521       15.7727378670       36.4518492882
  H         4.7315896137        6.3679886120       10.9399709989
  H         4.2593413641        5.0663467388       11.7365515498
  C         2.5636819629        6.0886240545       10.9085258414
  H         7.4302436461        7.1306231135       31.1385569669
  H         6.4303649746        6.7118137932       29.7862439609
  C         6.1350406740        5.3619626783       31.2948656646
  H        -8.9790028220       10.7247232682       23.8257024956
  H        -8.3499390353        9.1833061570       24.3608043993
  C        -9.7298524114       10.0689211551       25.6201793553
  S        -3.8751536484       14.0668818114       36.8266837370
  C        -3.3336319044       16.7054890428       37.5313085848
  H         1.8689546940        5.2033413964       11.0831772744
  H         2.1340712339        7.1308502458       11.1438131692
  H         2.6200972648        6.1372460358        9.8262364069
  H         5.1688571273        4.9725819516       30.8439791985
  H         6.0383922694        5.3491965715       32.4170224178
  H         6.8528652932        4.6895967783       30.8696043726
  H        -9.3970392056        9.4636634359       26.5143989816
  H       -10.6059019531        9.6811543860       25.0783824036
  H       -10.1095082027       11.0248332906       25.9839218388
  C        -4.1138960423       14.7579882488       38.4426227386
  N        -3.9894027589       16.1275271520       38.6218771827
  O        -3.1123589849       17.9370612046       37.5493663210
  S        -5.0756872204       13.9087245404       39.6653585396
  C        -4.1927490001       16.8564589660       39.8439848868
  H        -4.5293666003       17.8611811928       39.6319371572
  H        -4.9837024539       16.4288884249       40.4280358216
  C        -2.9559143252       17.0277189798       40.6967149259
  H        -2.2080260600       16.5037742228       40.3422347429
  H        -2.5060933048       17.8663782427       40.4999997353
  H        -3.0270534321       16.9500555686       41.7171307815
  H         7.4221629537       10.6336432747        3.7494725592
  C         8.1867441852        9.9052115386        3.6873813386
  H         7.7988085761        8.9288883662        3.9240709306
  C         9.1342551388       10.2868296538        4.8525108707
  C         8.8347799459        9.9529813776        2.3610116373
  C         8.3803509146       10.4782763753        6.2057354573
  H         9.9017257181        9.4711549725        4.7783784660
  H         9.4606703022       11.2950722026        4.4602590356
  H         8.2559905806       10.6304365256        1.6642735627
  H         9.1676197911        9.1027941970        1.8341509916
  H         9.7024146143       10.6467838209        2.2986028034
  C         7.5474080553        9.3216948385        6.7255257452
  H         9.0873296377       10.6429021091        6.9978470527
  H         7.6268375092       11.3116781566        6.2270249696
  C         6.7817960239        9.5702212455        7.9533301726
  H         8.3053553903        8.5241308960        6.9532078934
  H         6.8050167419        9.2506809978        6.0204604823
  C         5.4954159645       10.3585004800        7.7810741420
  H         7.5256192709        9.9459904526        8.7159702172
  H         6.5109278826        8.6649830496        8.5094488445
  C         4.2047341798        9.5814212655        7.3264129565
  H         5.2420443470       10.8043299149        8.7325819762
  H         5.6917560216       11.2257870836        7.1667193156
  C         3.0469473212       10.5339413073        7.0899455189
  H         3.8585563065        8.7884406002        7.9411620063
  H         4.4271192919        8.9120881901        6.3912722826
  C         3.4516771497       11.8077280996        6.4349706273
  C         2.6160687946       11.1322175091        8.3398404903
  C         1.9742036612        9.7811297663        6.3658050750
  C         3.1414628428       12.9290471439        7.2235773171
  C         4.0061259087       12.1919513587        5.0761700963
  C         2.5765825736       12.5062368434        8.4327168834
  C         2.0431471590       10.5483170468        9.4910913731
  H         2.4681682417        9.5135565093        5.4034468385
  H         1.5646067629        8.9060559277        6.8074491097
  C         0.8564618335       10.7845095469        5.9221858066
  S         3.4290314104       14.4487640354        6.3697491009
  C         4.1267420844       13.6355301020        4.9806607922
  H         4.2551508676       11.4123895913        4.4259190727
  C         2.0602600828       13.1621021881        9.5063541483
  H         2.2046668366        9.5692245053        9.4139276305
  C         1.5728797733       11.1873436212       10.6340319259
  H         1.2523136249       11.7656411915        5.5463771533
  H         0.1125660591       10.8420347931        6.7377278375
  C        -0.1453352600       10.2656286796        4.7278660364
  C         4.4924446984       14.3265862926        3.7250083109
  C         1.5631298362       12.5309780466       10.6827910609
  H         2.0700068091       14.2117549243        9.6011409114
  C         1.0656111417       10.8548442624       11.8666526123
  H        -0.9612462442       11.1567144700        4.7116113372
  H        -0.7889137975        9.4387168172        5.1190740333
  C         0.4167554551        9.8837521779        3.4652805181
  C         4.4778990454       15.6891586443        3.4854318421
  C         4.7385775184       13.5090357457        2.4491843387
  C         1.0660348038       13.2208165315       11.8871506690
  C         0.8022947705       11.9538606707       12.6361148115
  S         0.7236363176        9.3403471580       12.5616509818
  H         1.1556845282        8.9914374005        3.4367507300
  H         1.0575601003       10.5916873813        3.0273791221
  C        -0.6636615857        9.6715015940        2.3555742356
  N         4.2071866556       16.6586757500        4.4389576399
  C         4.8228413351       16.3146923984        2.2416576948
  C         4.9971143610       14.1555638680        1.2601387629
  H         4.7013410016       12.3586586903        2.6238586480
  C        -0.1470928356       14.0745678993       11.5747362148
  C         2.0990233748       14.0151816825       12.6977610117
  C         0.2741576581       11.5611855251       13.9183934637
  C         0.3342386813       10.1638638761       13.9775765860
  H        -1.4630249012        8.9897726699        2.6728878442
  H        -1.0916409828       10.6633508900        2.2106650270
  C        -0.0594358943        9.0946516328        1.1560432195
  S         4.2521365277       18.1583660490        3.7572078133
  N         4.7001739995       17.7003242452        2.3269088591
  C         4.9748080448       15.6197962240        1.0387749109
  H         5.2195300009       13.5738761924        0.3191738241
  H        -0.1068836716       15.0017586584       10.8770968017
  H        -0.4786611677       14.4952658491       12.4687288113
  C        -1.3104590573       13.3060872547       10.8751998277
  H         2.6975693974       14.8347715545       12.2764154825
  H         1.5413994067       14.4403410341       13.6009153595
  C         3.3553002457       13.2764482034       13.0877943270
  H         0.0615576845       12.3864730974       14.5568941210
  C         0.0953574604        9.4347283771       15.2363866754
  H        -0.1082980926        8.0250746066        1.2710911804
  H         0.8033008806        9.5970056152        0.9766440588
  C        -1.0116066786        9.4453789390       -0.0652660888
  C         5.2022502112       16.2585123695       -0.1995183710
  H        -0.9670317551       12.8109165645       10.0073927587
  H        -1.5555829368       12.4778061761       11.5480218937
  C        -2.5211197839       14.1125331404       10.5953218827
  H         3.6817021574       12.9965368635       12.2119334670
  H         3.0487422755       12.4185306379       13.5760453649
  C         4.3565372580       14.0316776234       13.9346990160
  C         0.0600570387        7.9845879992       15.4562820617
  C        -0.1795372115       10.2459514060       16.4702860278
  H        -1.0150676797        8.6309756359       -0.7842571343
  H        -2.0194109755        9.3914763633        0.3654659546
  C        -0.7212171823       10.7998470459       -0.6630427695
  H         4.8454152340       17.2021019928       -0.0918879180
  C         5.4502706504       15.8685737936       -1.4843194612
  H        -2.4482596648       14.7738110334        9.5726719411
  H        -2.8527549660       14.7492302108       11.5507993486
  C        -3.7778492151       13.1669179791       10.3571415335
  H         4.7722295130       14.9005147922       13.4098044002
  H         4.0932726122       14.5953151309       14.8194557388
  C         5.5040533380       13.1263450522       14.2847393536
  N         0.3034965608        7.0153660145       14.5097143744
  C        -0.1884746117        7.3751847302       16.7037012917
  C        -0.4072984961        9.5728942582       17.6238901227
  H        -0.2337433195       11.3603672594       16.3802528719
  H        -1.7488635841       11.1572149032       -1.0284942933
  H         0.0172334947       10.6407852640       -1.4172440545
  H        -0.2634967440       11.6575838581       -0.1902230333
  S         5.6276210898       14.2884093488       -2.1921452420
  C         5.5266252527       16.9852590258       -2.4726470240
  H        -3.5058198676       12.3524934624        9.7769259420
  H        -4.1058965563       12.6994533461       11.2877500640
  C        -4.7616062641       13.9448877520        9.4857316620
  H         5.4673766506       12.3436815053       13.5472533652
  H         5.3807468304       12.6618248765       15.3497205703
  C         6.9136433854       13.7934687476       14.3004643933
  S         0.0550347257        5.5320750120       15.1918818255
  N        -0.2545453356        5.9914544189       16.6620054498
  C        -0.5520108830        8.1606618824       17.7898096966
  H        -0.5793457775       10.0985344165       18.5444419552
  C         5.9044732538       15.1234811921       -3.7031365220
  N         5.9165766315       16.4803454699       -3.6986884138
  O         5.5297072599       18.1790211587       -2.1744303815
  H        -5.2627043427       14.7053649427        9.9452159420
  H        -4.2152018044       14.5542642038        8.7102971475
  C        -5.9218832096       13.1971897121        8.9156085702
  H         7.6335346296       13.0614824300       14.7565851295
  H         7.2037302456       13.8872768101       13.2199863522
  C         7.0063653530       15.0066104572       15.1373866288
  C        -0.8619415859        7.4731670548       18.9846188184
  S         6.3502235235       14.4228328907       -5.2864083558
  C         5.9715085415       17.3892820398       -4.8648858354
  H        -5.7562197767       13.1286360384        7.8495414575
  H        -5.8639451418       12.1508126057        9.1806178081
  C        -7.2511577148       13.8402037996        9.1959987296
  H         7.7966340211       14.9148193175       15.9091416111
  H         6.1350178914       15.2224413737       15.7160119134
  C         7.2826147513       16.3012268376       14.3122895201
  H        -0.3161616059        6.5097691656       19.0117211820
  C        -1.3370529591        7.8934966602       20.1768243997
  H         6.6285243172       16.9503637643       -5.6156923987
  H         6.3334736078       18.4925298988       -4.6071471623
  C         4.5058503783       17.5707542825       -5.4979079617
  H        -7.9710704559       13.7666429886        8.3876818855
  H        -7.2319496687       14.8184855320        9.3500607415
  C        -7.6640598117       13.5107092302       10.5546818906
  H         8.1792256772       16.3906821482       13.8797192914
  H         6.4434531990       16.7546583119       13.7539945966
  C         7.3122989983       17.4164271748       15.4487998678
  S        -1.9635550043        9.5238669975       20.4483063623
  C        -1.4410530928        6.9619986022       21.3601625807
  H         3.8118703602       17.8176092605       -4.5984932938
  H         4.3615517561       16.4761040192       -5.8325646404
  H         4.5374019662       18.2122931174       -6.4411333393
  H        -8.2529757814       14.2332953645       10.9570442540
  H        -8.2749479429       12.5895267857       10.6128108902
  H        -6.8391274605       13.3044850761       11.3519229804
  H         7.3524150370       16.8963187735       16.3803248521
  H         8.1623214456       18.1673927236       15.1986944218
  H         6.2911559116       17.9046721600       15.4597470935
  C        -2.2599181607        8.8771100727       22.0179534802
  N        -2.0994655818        7.5914651905       22.3435649141
  O        -1.0325539420        5.7547662587       21.4838517749
  S        -2.6942056194        9.9440783251       23.4889257138
  C        -2.3106572012        6.9910346699       23.6372263182
  H        -2.5559493961        5.9619843228       23.5191982860
  H        -3.1589576077        7.4880848080       24.1053083620
  C        -0.9933376720        7.0438542635       24.4808932244
  H        -0.5537122938        6.0537618885       24.2833865813
  H        -1.0823687333        6.9843419671       25.5905603376
  H        -0.3569331581        7.7326299950       24.2584125439
