352
i =
  H        -3.9132389353       13.4916692102       16.3621671740
  C        -2.9643175303       13.8505339218       16.6066740962
  H        -2.2332678855       13.0705682832       16.9524586707
  C        -3.1097180774       14.8629277454       17.7108300300
  C        -2.5047222151       14.3661127714       15.2969762975
  C        -3.2271656345       14.1769067190       19.0453450422
  H        -2.2981336356       15.5194388052       17.6340695432
  H        -3.9949651716       15.4697444147       17.4854332401
  H        -3.0292410166       13.8591901648       14.5128785777
  H        -2.4776192099       15.4739266592       15.1832266778
  H        -1.5337811472       13.9759946028       15.1321133725
  C        -1.9337195638       13.7104885804       19.7424608309
  H        -3.9903219295       13.3882880449       19.0052900215
  H        -3.6732252564       14.7901495949       19.8048207322
  C        -2.1242439683       13.6205618586       21.2584524342
  H        -1.5974993040       12.7752214964       19.2704448522
  H        -1.1108583968       14.3601342105       19.5980974013
  C        -0.8021214483       13.1233931823       21.8723330045
  H        -2.8598506270       12.8990710350       21.4833000631
  H        -2.5017462560       14.5419020708       21.7401432069
  C         0.1867024249       13.9726926111       22.4677452041
  H        -1.0856745715       12.3397559820       22.5829329310
  H        -0.3412315015       12.5605129322       21.0595341690
  C         1.2453745473       13.2563605790       23.3230759983
  H         0.7203410810       14.5440281854       21.6148471180
  H        -0.2538973654       14.7634688923       23.0311838894
  C         1.6740892823       11.9251372300       22.6602833945
  C         0.7020041514       12.5083024364       24.5376360693
  C         2.4899452869       14.1650531925       23.3877529998
  C         1.4418257353       10.8491067376       23.4437978664
  C         2.2436466279       11.5779974498       21.4141223037
  C         0.7835075263       11.1501883522       24.6000698789
  C         0.1118728152       13.1101823052       25.6307094684
  H         2.6811198585       14.6329464989       22.4276435819
  H         2.2783267740       14.9976824986       24.0004221220
  C         3.9080645868       13.5204171648       23.6511831796
  S         1.5854097312        9.3690767425       22.6271529847
  C         2.2241413776       10.1909599124       21.2475121642
  H         2.4497421969       12.3129891084       20.6934341405
  C         0.3609896641       10.5132878139       25.7079866203
  H        -0.0322739358       14.2130584335       25.5408534007
  C        -0.2471344875       12.4709671202       26.7584370373
  H         4.0203107589       12.7404090943       22.8941216923
  H         3.8433946933       12.9182724946       24.6391401197
  C         5.1538188570       14.5226918607       23.7164511438
  C         2.6183061974        9.5289023356       19.9608623639
  C        -0.1873851552       11.0936320490       26.8719763623
  H         0.5656184784        9.5258183290       25.6472608459
  C        -0.6454288128       12.8543371032       28.0235608733
  H         5.8522186572       14.0882606209       24.4859170735
  H         4.7908561222       15.4032939001       24.2625450748
  C         5.8172785696       14.6699876643       22.3466842686
  C         2.5468289758        8.1658654954       19.6685074255
  C         2.9235626582       10.3775017594       18.7593188468
  C        -0.6033568380       10.3892032217       28.1324417906
  C        -0.8078627971       11.7345329125       28.8193142152
  S        -0.9690746980       14.3709842880       28.7101182237
  H         6.2042380867       15.6560684580       22.1137118365
  H         4.9940877772       14.6878326159       21.6456942397
  C         6.8641066959       13.5087396568       22.1253939412
  N         2.3762530067        7.1708172726       20.6370455396
  C         2.8859398955        7.5807573900       18.4205771983
  C         3.1647322534        9.8766604554       17.4940610317
  H         2.9030094746       11.4610933348       18.8556146675
  C         0.4832123801        9.5022958576       28.7780097617
  C        -1.9444709558        9.6225163907       27.9667649487
  C        -1.2372792911       12.2133065873       30.1047578597
  C        -1.2582167819       13.6032878997       30.1881195248
  H         7.8032752296       14.0653710534       21.9139941096
  H         6.8558804917       12.9738966270       23.0757091290
  C         6.6876095997       12.6779775346       20.8566483483
  S         2.3727525824        5.7121705710       19.9371280153
  N         2.8636400189        6.1521365906       18.4258532121
  C         3.0767704402        8.3798788213       17.2934668642
  H         3.2762109203       10.5808719662       16.7221165659
  H         1.1335147581        9.0249940625       28.0318676565
  H         0.0385039557        8.6914744175       29.3891614778
  C         1.4312715217       10.3327220738       29.6105919530
  H        -1.6243574075        8.7898132403       27.2779347277
  H        -2.1565381024        9.0021798864       28.7991919688
  C        -3.1941465423       10.4579325426       27.5783555929
  H        -1.5941192285       11.4732973697       30.9085635927
  C        -1.5526637751       14.3994848556       31.4013928355
  H         5.9017513500       11.8857486370       20.9898821971
  H         7.6286316755       12.0810415796       20.7926845277
  C         6.3519121473       13.3262732132       19.4776482908
  C         3.1570302264        7.7391310849       16.0042102431
  H         1.7837708422       11.2636811465       29.1207772476
  H         0.9037661290       10.6421920344       30.5473469595
  C         2.7151985842        9.4363453711       29.8611982192
  H        -3.0843830361       11.0049209468       26.5983951143
  H        -3.3739845826       11.1123207613       28.4701780288
  C        -4.3914559355        9.6255922631       27.4668812317
  C        -1.6028701105       15.7882726021       31.4895828324
  C        -1.8673885486       13.6387397059       32.6369216420
  H         5.7932794526       12.6027099918       18.8991150819
  H         5.5190033542       14.0475852748       19.6335815160
  C         7.6380287424       13.8532409709       18.8274064291
  H         3.0014069818        6.6738631247       15.9529335358
  C         3.5516255314        8.2686144851       14.7806394800
  H         3.0127769954        8.8330024579       28.9898011572
  H         2.5672452278        8.7363833575       30.6596272517
  C         3.9328378931       10.1549080334       30.4400197495
  H        -4.1295621068        8.8798437278       26.6877820194
  H        -4.5475981509        9.1609243410       28.4420539631
  C        -5.6124127519       10.4416335809       27.1123770186
  N        -1.2444083410       16.6964005971       30.5004167966
  C        -1.8750683363       16.4880907331       32.6732629040
  C        -2.1784590561       14.3590487599       33.8033570581
  H        -1.8456725733       12.5858990037       32.6475138194
  H         7.3993328642       14.5278243065       17.9596054374
  H         8.2697020588       14.4443496166       19.4711501555
  H         8.1658098645       12.9735200033       18.4911398619
  S         3.8096191742        9.9162753589       14.4437556980
  C         3.6447040846        7.3783785113       13.6633422641
  H         4.1648835120       10.9688471919       29.7599770972
  H         3.6073206066       10.6466254954       31.3907689091
  C         5.2855307756        9.3811027192       30.6770131267
  H        -5.4751399761       11.5357298146       27.2858508224
  H        -6.4088900692       10.2202317050       27.8003836535
  C        -5.9866629397       10.2328693032       25.6064152307
  S        -1.2692486394       18.2096413266       31.0976861497
  N        -1.9046594229       17.8768128450       32.5667339943
  C        -2.1691269168       15.8393172626       33.7891049590
  H        -2.4261933834       13.7608347521       34.7010916880
  C         4.1219244365        9.4085558922       12.7371461631
  N         4.1212062436        8.0846049387       12.5602363462
  O         3.5833396645        6.1174205840       13.7511980753
  H         6.0097523456       10.0166733415       31.1758603982
  H         5.7206581418        8.9941781982       29.7905616662
  C         5.1399990933        8.1837667922       31.6309118334
  H        -5.2789318001       10.7698199941       25.0414876772
  H        -5.8312135019        9.2006402218       25.3507055719
  C        -7.3609742738       10.8161157947       25.3189134898
  C        -2.3643178912       16.6880352693       34.9840230146
  S         4.8749890427       10.3358870694       11.3850643585
  C         4.3151363550        7.4374905283       11.2485311502
  H         5.9821464246        8.1620333284       32.2996705816
  H         4.2764698873        8.2171583083       32.1743644866
  C         5.3466431633        6.8326816387       30.9578304913
  H        -7.5721782814       11.1174746801       24.2323325321
  H        -7.4014784889       11.7550716367       25.8638358818
  C        -8.4893303297        9.8294479503       25.6342559575
  H        -2.0469752222       17.6406868257       34.8555490377
  C        -2.9756024989       16.4345514027       36.2188005272
  H         5.3145103824        7.7066586365       10.8017599425
  H         4.5660972116        6.3588616407       11.4474372341
  C         3.1000055596        7.5565206071       10.3444295205
  H         6.0893186401        7.0998823915       30.2030896296
  H         4.4319233721        6.6264567992       30.4868062501
  C         5.7809753677        5.7729718230       31.9338470059
  H        -8.7111619819        9.3925728786       24.6526893398
  H        -8.0303578902        9.0170192800       26.1783042972
  C        -9.7458562388       10.3992657349       26.2493920551
  S        -3.5922009951       14.9222098010       36.7062613616
  C        -3.0596165854       17.4851740980       37.1538029467
  H         3.0121470485        8.5104288973        9.8706734347
  H         3.1740183861        6.8059092519        9.6126680326
  H         2.1980021626        7.3191103982       10.9311994733
  H         6.5664739486        5.1190734262       31.7311142787
  H         5.0087119159        5.0358628359       32.0370498898
  H         5.9208619240        6.1811902231       32.9204741804
  H       -10.4886072338       10.6856025109       25.4672134759
  H        -9.5705334161       11.3505300282       26.7585885006
  H       -10.2402536711        9.7304573493       26.9147002170
  C        -3.8287026435       15.6513623605       38.3329022534
  N        -3.6235246540       17.0137695293       38.3263316662
  O        -2.6924570429       18.6760075320       36.8502371438
  S        -4.5526744276       14.8823771637       39.7415305914
  C        -3.8025190756       17.8529912838       39.4927233070
  H        -4.1476556324       18.8412338182       39.2530415218
  H        -4.5145942019       17.4083217759       40.1429790675
  C        -2.4959101062       18.0030964323       40.3182196082
  H        -2.3177278883       19.0703435177       40.4892321729
  H        -2.7100835351       17.4934989399       41.3357802778
  H        -1.6836533051       17.4304648852       39.8057173103
  H         6.8014487691       11.2369898969        3.1502126431
  C         7.5787324956       10.4652623165        3.2313842349
  H         6.9752491367        9.6172501736        3.2788385103
  C         8.4889968228       10.6929032912        4.3977724620
  C         8.2595139665       10.4243661279        1.8876988955
  C         7.6529305675       10.8773011467        5.6801102986
  H         9.1925094379        9.8354459046        4.4794335148
  H         9.0491071084       11.6473276655        4.2389736038
  H         9.1600583293       11.0588895848        1.8351312770
  H         7.5016069475       10.7064673616        1.0942938847
  H         8.6019228113        9.4208929183        1.6694506732
  C         6.9648086778        9.6441837149        6.2776745505
  H         8.2505897748       11.4103684944        6.4887053838
  H         6.8725782785       11.6177784078        5.4629653851
  C         6.4192518722        9.8772646137        7.6540707601
  H         7.6449678817        8.8877534046        6.3739013197
  H         6.1517374265        9.2751715255        5.6781455421
  C         5.1231101340       10.7531550985        7.6955349721
  H         7.1768909777       10.3114305213        8.3004039611
  H         6.2681707345        8.9091976197        8.1300723782
  C         3.8837335544        9.9423927483        7.1147902732
  H         4.9834511824       11.1426244505        8.7068735950
  H         5.3280932622       11.5804298040        7.0617390048
  C         2.5594541364       10.7224143311        7.0276645554
  H         3.7099127205        9.1411332817        7.7791849135
  H         4.1288013048        9.3669805422        6.1645925812
  C         2.9038430046       12.0659939030        6.3583149847
  C         2.1392292050       11.5084476382        8.2801903610
  C         1.3790171880       10.0209292579        6.4171875107
  C         2.7054279393       13.2049753785        7.1113950931
  C         3.3836674576       12.4537828163        5.0510973269
  C         2.2601293155       12.8747742217        8.3793169835
  C         1.7612893135       10.9039188961        9.4861062534
  H         1.6915090146        9.5733987770        5.4812241957
  H         1.0016471871        9.2234958904        6.9897881138
  C         0.1708092500       10.9498537038        6.1918107854
  S         3.0972806303       14.6621665727        6.3412215230
  C         3.5094106523       13.8057982688        4.9117415883
  H         3.6493085274       11.6271843628        4.3083165454
  C         1.9754852060       13.5260928898        9.5316664527
  H         1.5428548569        9.8821247538        9.4904866228
  C         1.4481078774       11.6431873829       10.6698148029
  H         0.3675652357       11.9040277039        5.7516233625
  H        -0.3510051570       11.3505168044        7.0516510852
  C        -0.7424262614       10.2580766342        5.2473629201
  C         4.0035689832       14.4600849585        3.6427450263
  C         1.5414514941       12.9787846602       10.7446638252
  H         1.8398879877       14.5855980168        9.4231934247
  C         1.1149093955       11.3230093722       11.9747513147
  H        -1.6749255905       10.8488353953        5.3721071162
  H        -1.1148129369        9.3079777890        5.6701899189
  C        -0.3713768186       10.1079185862        3.7241598397
  C         4.0308274451       15.8755348406        3.3256584233
  C         4.3793228612       13.6127368154        2.5258800038
  C         1.1850269096       13.7202333401       12.0329380980
  C         0.9428880650       12.4169045361       12.8096381265
  S         0.7255931669        9.7961027482       12.6889138599
  H         0.3267139716        9.3407521383        3.3898507408
  H         0.1288423352       11.0189830800        3.3827698127
  C        -1.6017972316       10.0395415506        2.7900624623
  N         3.7925001102       16.8824017382        4.2888810037
  C         4.2763618740       16.4013032443        2.0741642092
  C         4.8475107713       14.1628731509        1.3178101679
  H         4.4947321618       12.5213616981        2.6802155937
  C        -0.2222137422       14.3994844255       12.0346972223
  C         2.3642135486       14.5780778719       12.5943504889
  C         0.6134680124       11.9846097866       14.1313907390
  C         0.3531006281       10.6502451133       14.1889335185
  H        -2.3392166079        9.4180544366        3.2782876732
  H        -1.9083462939       11.0125147095        2.4030883230
  C        -1.2071176407        9.2951122315        1.5093203265
  S         3.6786593451       18.3327349154        3.4896470520
  N         4.0540863086       17.7481778202        2.0675540909
  C         4.7269142728       15.6104605889        0.9647779950
  H         5.0471104289       13.4757249148        0.5549462077
  H        -0.1712391984       15.3329077167       11.5037822207
  H        -0.5644388441       14.6309332499       13.0105121228
  C        -1.3578988926       13.6488038021       11.4073216603
  H         2.6664220150       15.3252763567       11.8206997065
  H         2.1437147260       15.0850654234       13.5002969249
  C         3.4660454105       13.7037145737       13.1396548284
  H         0.5166764665       12.7606777300       14.8542684264
  C         0.0194561768        9.8510630245       15.4513515748
  H        -2.1586583897        9.0318549365        0.9719858384
  H        -0.7324786553        8.3154062567        1.6219826207
  C        -0.3595693332       10.1900471614        0.5995451261
  C         4.8896994602       16.2187257889       -0.2837120679
  H        -1.1501340928       13.0934569302       10.5082728960
  H        -1.7346935884       12.8512268861       12.0804896303
  C        -2.4609865260       14.5861064790       10.9268351045
  H         3.7420198432       12.9352978939       12.4081763388
  H         3.1445147003       13.3076579750       14.1480762956
  C         4.7356627975       14.4998712232       13.3158620043
  C         0.0297132573        8.4390061082       15.5115530330
  C        -0.3256897142       10.6212697564       16.7413223745
  H        -0.1663566246       11.1489408309        1.0480777031
  H         0.6564380696        9.8030108372        0.4028901736
  C        -1.0976624540       10.5326561640       -0.7011775787
  H         4.6166276169       17.2130143551       -0.3044756777
  C         5.2686153428       15.8676449723       -1.5586058998
  H        -2.0719669218       15.1348179021       10.0948443248
  H        -2.6439526647       15.3052604520       11.7179786542
  C        -3.6927085025       13.7428559265       10.5799266925
  H         5.0899485725       14.6351379652       12.3221731526
  H         4.5651639908       15.4432250254       13.7232671439
  C         5.7718522491       13.8284829278       14.2352513325
  N         0.2768358144        7.5342117917       14.4440892359
  C        -0.0931474634        7.7989111854       16.7124592681
  C        -0.5966590379        9.9068944786       17.8680051729
  H        -0.3868227805       11.6757802326       16.8528108424
  H        -0.4012924525       10.9896535953       -1.4306210809
  H        -1.9389788546       11.1646760378       -0.5569419710
  H        -1.4785086527        9.6130009762       -1.1867025243
  S         5.6821295106       14.3219140332       -2.1112738419
  C         5.2772034795       16.9271017890       -2.6460117018
  H        -3.2935079023       12.7833463861       10.1152052515
  H        -4.2300236540       13.5586875187       11.5276842080
  C        -4.6125253763       14.4650727950        9.5382942341
  H         5.9067579533       12.8043204277       14.0705755719
  H         5.4447264025       13.8804373115       15.3188556855
  C         7.0973889367       14.6082591120       14.1116688197
  S         0.2910217346        6.0342870826       14.9750465918
  N         0.0465106066        6.4584755606       16.5876490912
  C        -0.3987378092        8.4305038865       17.9237932317
  H        -0.8055903799       10.4051969785       18.7897029271
  C         5.9870687936       15.0029622754       -3.6635217601
  N         5.7640767456       16.3404242601       -3.7598580493
  O         4.9237789055       18.1074171345       -2.5516688160
  H        -5.2663041381       15.1905361666        9.9527486488
  H        -4.0450922416       14.9827848180        8.7344018893
  C        -5.4655404226       13.4236200040        8.8790594395
  H         7.8646528544       13.9802602291       14.4222285479
  H         7.2436187893       14.8483777182       13.0390498878
  C         7.0992361928       15.9185023657       14.9962159380
  C        -0.6074742068        7.6573460796       19.1262422384
  S         6.2385434553       14.1055271369       -5.1469844695
  C         5.8008550394       17.1101206301       -5.0040354141
  H        -4.7485136415       13.0227208016        8.0937169859
  H        -5.7825231813       12.6214901287        9.5398262487
  C        -6.6706191319       13.9369950806        8.0435165633
  H         7.1763741400       15.7188643840       16.0272003515
  H         6.1898318190       16.4234561044       14.8691163461
  C         8.1882589727       16.9603730337       14.5564781899
  H        -0.2412970362        6.6399853458       19.0308317375
  C        -1.1906154781        7.9365297243       20.3460478666
  H         6.5590875311       16.8711588384       -5.6603498626
  H         5.9551826527       18.0781376853       -4.6379485430
  C         4.4790852662       17.0145724685       -5.7076081295
  H        -6.9142385814       13.2888412567        7.1431788263
  H        -6.4708068096       14.8831835302        7.5550477266
  C        -7.9170754765       14.0678942983        8.9182254810
  H         8.6352623048       17.4520451763       15.3538821018
  H         8.9513117696       16.2684489146       14.1319294807
  C         7.7963700698       17.8597031693       13.3540109194
  S        -2.0890069460        9.3104074295       20.8454167966
  C        -1.1923313589        6.8525278189       21.3394890145
  H         4.4781652828       17.7143307515       -6.5047369263
  H         3.5795260421       17.0604137680       -5.1211749702
  H         4.4500921137       16.0877021613       -6.3325142575
  H        -8.2486422335       13.1750314834        9.4092868537
  H        -7.6574968393       14.9658209414        9.5836082973
  H        -8.7673776608       14.2547918722        8.2139079774
  H         6.6881962363       18.0289309411       13.2781955240
  H         8.3869431953       18.7553255973       13.6637263271
  H         8.2429383426       17.3676011831       12.4819373252
  C        -2.3529781151        8.4264249064       22.3733928891
  N        -1.8164753510        7.1660067549       22.4963282507
  O        -0.6321893673        5.7879907414       21.0618023743
  S        -3.4150115670        8.9252885478       23.7895043869
  C        -1.7597105285        6.2343565454       23.6210344011
  H        -1.5517459669        5.2481388645       23.3186218997
  H        -2.6082299242        6.3637865264       24.2959641012
  C        -0.6669634600        6.6376579551       24.5349513840
  H         0.3024058464        6.6811207505       23.9710685220
  H        -0.4915907819        6.0478409128       25.4229192063
  H        -0.8289452291        7.6780183923       24.8426040207
