352
i =
  H        -2.4045338170       14.9887691149       15.9557517711
  C        -2.6840618711       13.9293008134       16.1408018072
  H        -3.6737133557       13.8976971498       16.4776510302
  C        -1.7429407099       13.4990972124       17.3054328213
  C        -2.4512669074       13.0832026481       14.8491507920
  C        -2.4260379714       13.6032499144       18.6721820633
  H        -1.3825650438       12.4540625658       17.2082803186
  H        -0.9093026647       14.1475224805       17.3859062387
  H        -2.9221391432       12.0772406314       14.8682334699
  H        -2.7451181442       13.4249798719       13.8559878923
  H        -1.3837804559       12.8969834413       14.7213207629
  C        -1.6180915183       13.1169908889       19.8411256956
  H        -3.3943296051       13.0297399047       18.6087270071
  H        -2.7080016263       14.6435920604       18.8959861195
  C        -2.2485381443       13.2030743301       21.2033665902
  H        -1.1549312602       12.1597835269       19.7182551325
  H        -0.7061442290       13.6686163835       19.8052456351
  C        -1.2463912261       12.6670740974       22.2207867682
  H        -3.1234053119       12.4897246817       21.2829419133
  H        -2.5832472668       14.1827969830       21.5387120653
  C        -0.0183515740       13.5222142068       22.5128428232
  H        -1.8084000847       12.5373794348       23.2103356190
  H        -0.9177103901       11.6967164986       21.9840112532
  C         1.1483690374       12.8473898451       23.3171891157
  H         0.5055406115       13.9281293523       21.6837811890
  H        -0.3465850562       14.3467195623       23.1662303261
  C         1.5275629727       11.5610900326       22.6463502972
  C         0.7308922587       12.1692282179       24.5631647516
  C         2.2788911387       13.8877384811       23.5839835129
  C         1.3528955889       10.4509550949       23.4664457696
  C         2.0620710305       11.2351568215       21.3716323363
  C         0.8396387319       10.8208983654       24.6804223472
  C         0.2595426106       12.8134949034       25.7017938598
  H         2.7194020942       14.3283970227       22.7318794169
  H         1.9229851431       14.7775362138       24.0584847346
  C         3.4268805730       13.2778719774       24.3623279294
  S         1.8008870572        9.0083316041       22.6885627654
  C         2.2333038275        9.8981806218       21.2433813380
  H         2.2763504940       11.9433774061       20.6586833957
  C         0.4056291603       10.2328875081       25.8159243043
  H         0.1678862234       13.8438666116       25.7573525925
  C        -0.0686024717       12.2238285301       26.8711970810
  H         3.9551594311       12.5407656712       23.7798865199
  H         3.1004903629       12.6812674516       25.1942504882
  C         4.4934453169       14.2944592661       24.8139680880
  C         2.7185027342        9.1956685693       20.0239758736
  C        -0.0320471182       10.8470906406       27.0235026599
  H         0.5170936892        9.1099260409       25.8597568034
  C        -0.5144044960       12.6355766788       28.1713319040
  H         5.1278396641       13.9381299085       25.6129331706
  H         3.8590721794       14.9929741966       25.3301642355
  C         5.3320083276       14.8818423375       23.6455936982
  C         2.5212814699        7.8426776817       19.7354680454
  C         3.1628837949       10.0702457702       18.9178796736
  C        -0.4619355231       10.1960442798       28.3495393107
  C        -0.6643159312       11.5685664379       28.9862162135
  S        -0.9041450184       14.2131962080       28.8843567896
  H         5.8192142685       15.8118211730       23.9106016749
  H         4.5830320675       15.2301426710       22.9230722514
  C         6.2410238194       13.7310695070       23.1396208392
  N         2.1643128695        6.8891333988       20.6897658109
  C         2.8235557609        7.2163504850       18.5322539761
  C         3.3755939050        9.4872825739       17.6331307290
  H         3.2156504249       11.0729198727       19.1136374225
  C         0.6265614144        9.2833338674       29.0003945599
  C        -1.7759008024        9.4959457340       28.2589718411
  C        -0.9999462271       12.0204652292       30.2586649517
  C        -1.1668631280       13.3961643780       30.3138470196
  H         7.3292873627       14.0282306259       23.3397725853
  H         6.1697106623       12.7717770591       23.7165600048
  C         5.9483324081       13.2942007907       21.6991382954
  S         2.3050401123        5.3957711593       19.9698610989
  N         2.6427852100        5.8430170777       18.4686408628
  C         3.2853311116        8.0011980478       17.4329501144
  H         3.4765654725       10.1648946987       16.7625257505
  H         1.1098665202        8.6811433862       28.1907173037
  H         0.1930126590        8.5321406663       29.6954502839
  C         1.7601962670       10.0760152499       29.6636436346
  H        -1.7117169142        8.5399502888       27.7283400019
  H        -1.9448980535        8.9456342180       29.2047436473
  C        -3.0401870826       10.3343957409       27.9393891260
  H        -1.2218267798       11.3585235838       31.0443410066
  C        -1.6540565435       14.0383762580       31.6343101085
  H         5.9799770585       14.0771632828       21.0478521317
  H         4.9474461545       12.7849660643       21.6034191645
  C         6.8119905919       12.1428753145       21.1966705091
  C         3.3635259043        7.2663798441       16.2205440529
  H         2.1577302378       10.8753368662       29.0805312898
  H         1.3860798254       10.5920218403       30.4390417767
  C         3.0038630929        9.3277516260       30.1154766731
  H        -2.8900518718       11.0537611253       27.1508080875
  H        -3.2373043955       10.8782720290       28.8853572238
  C        -4.1521373776        9.4100311429       27.6866569891
  C        -1.6797762123       15.4693580792       31.7300996776
  C        -1.6825521801       13.3366880633       32.9213303240
  H         6.9454321316       11.3468647800       21.9925492078
  H         6.1906708106       11.7307803697       20.4541164457
  C         8.0919182019       12.5532673762       20.4882235216
  H         3.0106223302        6.3067674666       16.1931751314
  C         3.6523826562        7.6525364067       14.9061371384
  H         3.6389377689        8.8935862328       29.3581681326
  H         2.6792435178        8.3663728602       30.5737246790
  C         4.0234620195       10.1173181790       30.8761784650
  H        -3.9620583476        8.7780051846       26.8304205743
  H        -4.2902569715        8.7801971075       28.6017644488
  C        -5.4022584552       10.2242041229       27.2460053968
  N        -1.2928699024       16.4267713169       30.7585684980
  C        -1.9580026748       16.1552354840       32.8844612930
  C        -1.9670047493       13.9916995588       34.0836190463
  H        -1.6159902510       12.2971278507       33.0359792231
  H         8.7722258965       13.1233668732       21.1426071347
  H         8.6193261864       11.6499527310       20.1670399436
  H         7.7835350131       13.1944572744       19.6316184891
  S         4.2185632749        9.1878068720       14.4036046585
  C         3.6325385539        6.6384545767       13.8502576884
  H         3.8999481545       11.1941288055       30.7766847699
  H         3.8063553958       10.0041918307       31.9397386125
  C         5.4521512362        9.7564827604       30.4613516894
  H        -5.0856774185       11.2040771860       26.9644163140
  H        -5.8472596042       10.4709415506       28.2275237097
  C        -6.4887692732        9.4995492140       26.3118717685
  S        -1.4532021702       17.9488805955       31.3338415675
  N        -1.8889085336       17.5052898791       32.8652504379
  C        -2.1303371434       15.4621192353       34.0972259269
  H        -2.0594001963       13.3364544658       34.9556725573
  C         4.2678731016        8.5486658972       12.7633894078
  N         3.9349616284        7.2623721034       12.6826834052
  O         3.3115006787        5.4590536920       14.0543162711
  H         6.1552187011       10.4368952071       30.8390022808
  H         5.4941306705        9.9076338430       29.4033605186
  C         5.9008522078        8.4157618963       31.0257691687
  H        -6.0035009083        9.0904526268       25.4439132691
  H        -6.8593275196        8.5996808791       26.8274311289
  C        -7.6139318691       10.5300757145       26.0743462686
  C        -2.3644062167       16.2230322536       35.3373415508
  S         4.8069051456        9.3312951527       11.2939670894
  C         3.8416273519        6.4548265559       11.4252971989
  H         6.4801749185        8.6609778537       31.8843254043
  H         5.0575798564        7.8188053717       31.4766268181
  C         6.7862076393        7.6192832996       30.1703425816
  H        -7.0915948810       11.3677575049       25.6182436347
  H        -8.0539051911       10.8920684462       26.9810237387
  C        -8.7788836956        9.8901841014       25.1563181817
  H        -2.2392856700       17.2330329165       35.2696918991
  C        -2.9285476216       15.8949219412       36.5552947727
  H         4.3838198882        6.7744061058       10.5282433858
  H         4.4128872817        5.5688845043       11.6696385037
  C         2.3624435177        6.0161429996       11.1568788309
  H         7.8325596940        8.0065774736       30.1821474500
  H         6.4657819466        7.7851413151       29.1089992664
  C         6.7622879258        6.0637804973       30.5778478996
  H        -8.9191329761       10.2799548978       24.0970755742
  H        -8.6363476194        8.8192197429       25.1703964708
  C       -10.0965390277       10.1433934697       25.8421427417
  S        -3.2953370701       14.3059041870       37.1119862307
  C        -3.0604099068       16.9236953354       37.5918465387
  H         1.9333084515        6.6554317322       10.3889196445
  H         2.4215128952        4.9847856499       10.8542611766
  H         1.7283424458        6.1215785632       12.0279006442
  H         5.8506033108        5.6161110289       30.0736079286
  H         6.7392382291        5.9435197918       31.6650281315
  H         7.6271981914        5.6238112872       30.1521211723
  H       -10.9477729240       10.0865943740       25.0932138348
  H       -10.0455041106       10.9987271546       26.4699106795
  H       -10.3684291084        9.4727546428       26.6601666719
  C        -3.8707156136       15.0216035412       38.6233835932
  N        -3.5909048504       16.3639384094       38.6859050792
  O        -2.6336456540       18.0888694507       37.5254885752
  S        -4.5204348971       14.1644000738       40.0889722254
  C        -3.9045129574       17.0982037492       39.9401067419
  H        -3.9986847095       18.1641953173       39.8739708380
  H        -4.8973480715       16.8808813967       40.2934295120
  C        -2.8779765808       16.8613666296       41.0652737031
  H        -2.6564346575       17.7750650387       41.6733339521
  H        -3.4347191403       16.1615538767       41.6958787316
  H        -2.0053462093       16.2873844603       40.6672805841
  H         7.7219629697       10.6945386991        3.2568463030
  C         8.3369982039        9.8249163286        3.4004102563
  H         7.6295244655        9.0139863848        3.3135525583
  C         8.9770901480        9.9704912500        4.7552346043
  C         9.4460437636        9.6189953419        2.3445407545
  C         8.0919647493       10.1300944751        6.0116626892
  H         9.5677324422        8.9981941752        4.8937361337
  H         9.7010363621       10.7886672274        4.6112286701
  H        10.3976863860        9.3799813648        2.8030764526
  H         9.5777265083       10.4857972454        1.6703451604
  H         9.2034692212        8.8140512444        1.6783884297
  C         7.2877357966        8.8533430360        6.3078385787
  H         8.7030969907       10.4375440584        6.9362817355
  H         7.4953129540       11.0293381722        5.8649084375
  C         6.5499960880        8.7835184407        7.6222198466
  H         7.9868077154        7.9340333868        6.2069329299
  H         6.7175257437        8.6256400912        5.4469128290
  C         5.3733835398        9.8246301707        7.8368871587
  H         7.2853398130        8.9904443411        8.3843239139
  H         6.1735884712        7.7889524562        7.7785792876
  C         4.0269957226        9.1756896829        7.3246610597
  H         5.4098196826       10.0884094575        8.8575529489
  H         5.7009405397       10.7202747624        7.3102462842
  C         2.8543993103       10.2480403554        7.1319693998
  H         3.6460246822        8.4573021440        8.0696420679
  H         4.1691499251        8.6580201830        6.3644828281
  C         3.3271995695       11.5917125610        6.5601170951
  C         2.4574383573       10.8506067335        8.4451174962
  C         1.6382282605        9.6927365737        6.3434738210
  C         3.1009161027       12.6287149634        7.4052529890
  C         3.7985839126       11.9939004014        5.3013033000
  C         2.5955764327       12.2339486593        8.6103262553
  C         2.0271539369       10.2150265375        9.6478994686
  H         1.9893842447        9.1913743209        5.4700874001
  H         1.1949022116        8.8300183521        6.9228600989
  C         0.5559249786       10.7048997674        6.0356554003
  S         3.3489700771       14.1497907646        6.6512961685
  C         3.7841723012       13.3837639773        5.1649498006
  H         4.0774819377       11.2505671194        4.5823854004
  C         2.1609571245       12.8419763126        9.7586437949
  H         1.9729167640        9.1335759843        9.6552321334
  C         1.6845804776       10.8453578127       10.8167510007
  H         0.8625723417       11.6175531694        5.6407485264
  H         0.0513402957       10.8411066130        6.9963428134
  C        -0.3928563211       10.2180328281        4.9824805213
  C         4.1853183279       14.0294840325        3.8823154012
  C         1.7262872242       12.1938411568       10.8716719865
  H         2.0547075493       13.9208417955        9.7540792883
  C         1.1679508422       10.5137267771       12.0181335975
  H        -1.3238019678       10.8661793183        5.0204100722
  H        -0.7320560237        9.1502719890        5.1878463031
  C         0.1801819259       10.4027982271        3.5247835365
  C         4.0830169724       15.4668921146        3.6595385427
  C         4.6987740875       13.2562039367        2.6913780811
  C         1.3206213235       12.8833814083       12.0943380168
  C         0.9931448360       11.6158574211       12.8584829243
  S         0.9293193759        8.9843418148       12.8163462205
  H         1.0908868526        9.7796301275        3.4430662621
  H         0.2541822117       11.4268625918        3.2252060989
  C        -0.7536778399        9.7590699304        2.5435415326
  N         3.7294661780       16.3721344805        4.6621072216
  C         4.4194926886       16.0935547051        2.4814238041
  C         5.0374249471       13.8752120560        1.5132023224
  H         4.8327602290       12.1918695863        2.7991307294
  C         0.0328248094       13.7617357878       11.7927011212
  C         2.5505354009       13.6860672812       12.6462086218
  C         0.6319690201       11.1652506751       14.1650848007
  C         0.4843369136        9.8364135995       14.2458262083
  H        -1.1403500304        8.8594482002        2.9338805184
  H        -1.6187962073       10.4355370056        2.3958819515
  C        -0.0998656773        9.5819765708        1.1678432629
  S         3.7130812404       17.8153952828        3.9270342579
  N         4.3407559782       17.4653445698        2.4663094894
  C         4.8712979252       15.3693345804        1.3535079548
  H         5.4430230910       13.3416215770        0.6808557469
  H         0.4047215402       14.4077252906       10.9753595793
  H        -0.1910132867       14.4411322644       12.5995911624
  C        -1.2388525583       12.9346448895       11.3746370349
  H         3.0530371449       14.2558844312       11.8291208152
  H         2.1458857414       14.4227469468       13.3286400594
  C         3.6811952035       12.8216334909       13.3149646665
  H         0.4233713064       11.8914818423       14.8852117844
  C         0.1137658968        9.0998876231       15.4934797117
  H         0.8095231542        8.9449011989        1.2378048091
  H         0.2749126444       10.5371668999        0.9964601871
  C        -1.0488732139        8.9640344232        0.1679359122
  C         5.0809738306       16.0395825845        0.1091980291
  H        -1.1584213785       12.1840675210       10.5242369482
  H        -1.7230775423       12.2575764564       12.1216148436
  C        -2.4014348388       13.8466071566       11.0601145655
  H         4.1558627934       12.1213942483       12.6293226514
  H         3.3111278026       12.2789374362       14.2145748690
  C         4.7273364163       13.7740743024       13.8659542807
  C        -0.0050684979        7.7174986676       15.6146610275
  C        -0.2469125312        9.9299801539       16.7007226884
  H        -1.1269772749        7.9106512257        0.3847173136
  H        -2.0787564455        9.4317026048        0.2291031547
  C        -0.5909522704        9.0836965304       -1.2967336692
  H         5.1327923153       17.0992839908        0.1654269874
  C         5.3289363496       15.6221263015       -1.1689619773
  H        -2.1175150954       14.3400447435       10.1588672214
  H        -2.6287959102       14.4652062736       11.9073119670
  C        -3.6013535021       12.9611017448       10.7173750360
  H         5.2928746121       14.0455214196       12.9572202926
  H         4.2377628464       14.6149427981       14.3119548472
  C         5.7736216978       13.1655159613       14.7441948894
  N         0.2924953243        6.7674929134       14.6535558192
  C        -0.3197007000        7.0829463450       16.7800977479
  C        -0.6227451114        9.3131359756       17.8842552752
  H         0.0815791929       10.9676519247       16.7261045168
  H         0.5339366168        9.2041107820       -1.3173259318
  H        -1.1828397456        9.8891625535       -1.8615503887
  H        -0.9317822421        8.1669549587       -1.8182814791
  S         5.6539600421       13.9809527903       -1.6532731840
  C         5.4649427190       16.6517168568       -2.2556965186
  H        -3.3823576826       12.3928584532        9.7747880363
  H        -3.7961886254       12.3301941227       11.6527110628
  C        -4.8556817295       13.7133117312       10.4549686963
  H         6.2558111114       12.2368160240       14.4261383650
  H         5.2623982345       12.7532150464       15.6387888966
  C         6.7182043025       14.2286733903       15.1943684512
  S         0.1347134431        5.2656701381       15.2448798071
  N        -0.3352565127        5.6862269075       16.7099680397
  C        -0.7353573461        7.8363229051       17.9832484896
  H        -0.8176965295        9.9847838808       18.7263124670
  C         5.8289709081       14.6936580636       -3.2593330344
  N         5.8028260112       16.0308502201       -3.3833734859
  O         5.3170953912       17.8891593623       -2.0410424041
  H        -5.5000393866       13.5854280378       11.2885896596
  H        -4.6757071723       14.7218010891       10.2348324330
  C        -5.5595242247       13.0463726961        9.2068701335
  H         6.1742677077       15.0748908641       15.6116265220
  H         7.3537606167       13.8455701021       16.0175304975
  C         7.6080649418       14.6333713423       13.9986008074
  C        -0.9933742590        7.1519388660       19.2460383782
  S         6.3027918589       13.7479967993       -4.6621496348
  C         6.0533431161       16.7568707357       -4.6661889631
  H        -4.9807175085       12.9908726670        8.2669036176
  H        -5.7133048098       12.0173943797        9.5879939231
  C        -6.7918779091       13.6756160121        8.7523438014
  H         7.0703920841       15.0846005597       13.2121504314
  H         7.9618812240       13.7173649860       13.4872102390
  C         8.8175903544       15.4960977014       14.3397839436
  H        -0.8342900637        6.1010979611       19.1001349472
  C        -1.4620123998        7.5795609445       20.4481902244
  H         6.9023558358       16.4745632764       -5.2272628587
  H         6.2410991199       17.8277868735       -4.4079877114
  C         4.7620897866       16.8616928203       -5.5730195519
  H        -7.2187668146       12.8542634973        8.1035601870
  H        -6.6403691239       14.5579570689        8.0717431104
  C        -7.8255968612       13.7839846830        9.8753360963
  H         8.7503311957       15.5777212091       15.4238484137
  H         9.7490576176       15.0421356647       14.0362072681
  C         8.6280016721       16.9946931992       13.9150579643
  S        -2.0006626881        9.0932906385       20.8367016021
  C        -1.7377468378        6.4970315128       21.4660740487
  H         4.0736743102       17.4841405545       -5.0138034706
  H         4.4022421204       15.8673836917       -5.9178706425
  H         5.0366681729       17.3468433071       -6.5452428735
  H        -8.7778864614       13.7186404844        9.3910336839
  H        -7.8155761477       12.9761593181       10.5267987479
  H        -7.6736821693       14.7715926669       10.3819001535
  H         8.6148185983       17.0153086823       12.8192247237
  H         7.7487385232       17.3797979002       14.2234667554
  H         9.5408613313       17.5397696330       14.3735739517
  C        -2.4926756265        8.4386190403       22.4177735306
  N        -2.3450831726        7.0943707948       22.5369324769
  O        -1.5275822790        5.3065351658       21.2664770988
  S        -3.1351766360        9.3210784337       23.8388936625
  C        -2.6326490567        6.3905197351       23.7565289255
  H        -2.7712440763        5.3630307702       23.3984466811
  H        -3.5630127945        6.6944999491       24.2243050579
  C        -1.4043079452        6.5665193004       24.6607881573
  H        -0.9411629396        5.6959121514       24.7943926639
  H        -1.7050351920        6.7808068756       25.7191766517
  H        -0.7264959177        7.2219354981       24.1914928003
