352
i =
  H        -2.6446895694       15.3866467761       16.4000196874
  C        -2.8620837418       14.3960813099       16.7796472213
  H        -3.8016598912       14.6136127463       17.1318007830
  C        -1.9149274368       14.0661788622       17.9026808816
  C        -2.8909065923       13.4120211326       15.6385583111
  C        -2.7165181286       13.6049167146       19.1668693744
  H        -1.2518707336       13.4164807703       17.4768964342
  H        -1.5372858780       15.0401935026       18.1964601494
  H        -1.8326255029       13.1386385692       15.4618065290
  H        -3.4485626641       12.4744402536       15.8253029716
  H        -3.2769008342       13.9564032681       14.8247807754
  C        -1.7294607812       13.0417028451       20.1837046918
  H        -3.4431395465       12.8834441419       18.9416007464
  H        -3.3358537285       14.4146743173       19.6662538529
  C        -2.3389701350       12.8253428631       21.5862453339
  H        -1.1948095348       12.2186882633       19.8664109774
  H        -0.9683261246       13.7715530345       20.1585058313
  C        -1.2765910107       12.4985173865       22.7079687836
  H        -2.9867179633       11.9608067674       21.6557237514
  H        -2.7728624607       13.7877029498       21.9056721283
  C        -0.0047885407       13.4964826002       22.6103081105
  H        -1.7001142931       12.4208303932       23.6713762282
  H        -0.8967559957       11.4998067885       22.4113049344
  C         1.2871185117       12.9585872202       23.3109924408
  H         0.3990997107       13.7106968522       21.5986180563
  H        -0.3226972058       14.4636789361       23.0522998530
  C         1.6701092230       11.6503765785       22.6157709950
  C         0.8704445155       12.2970483342       24.6363789271
  C         2.4453463407       13.9325586754       23.2949277906
  C         1.3558292307       10.5339485461       23.4277737645
  C         2.1969089113       11.3121389244       21.3880797366
  C         0.9260681052       10.9540670391       24.6544226165
  C         0.3538101890       12.9110042829       25.7040748592
  H         2.5979697948       14.3817194680       22.3115028814
  H         2.3145027935       14.7817274276       23.9764766081
  C         3.6760378834       13.3059142356       23.9517763846
  S         1.8125460028        9.0444450278       22.6532608274
  C         2.2357591543        9.9838146852       21.2042728733
  H         2.4601064466       12.2090722330       20.8101083297
  C         0.5355495240       10.3906082252       25.8587446593
  H         0.3953316142       14.0040627185       25.7139375855
  C        -0.1251038092       12.3319830979       26.8191878536
  H         4.0391055336       12.5455141754       23.2723285523
  H         3.4543742887       12.6904768521       24.8640342746
  C         4.7761393136       14.3476047575       24.3797865728
  C         2.6259845411        9.2503708958       19.9721126778
  C        -0.0412922915       11.0011042678       26.9828129544
  H         0.7181690701        9.3192216440       25.9121093581
  C        -0.5617798348       12.7447008616       28.0600817041
  H         5.5045062092       13.8784640474       24.9789445045
  H         4.3684448934       14.9894218411       25.1723249136
  C         5.4673064239       15.1602743695       23.2792891391
  C         2.6387768869        7.8463622116       19.7742226064
  C         2.9731732338       10.0640508353       18.7482859897
  C        -0.5057091376       10.3144984735       28.2192484810
  C        -0.7320173909       11.6444399619       28.8905273713
  S        -0.8121852152       14.2061961336       28.8687308886
  H         6.1867536242       15.8192546626       23.7565839986
  H         4.7804757419       15.7136563058       22.6561518395
  C         6.2980540222       14.2985265106       22.3298445058
  N         2.3359024437        6.9706506271       20.7510034478
  C         3.0078610596        7.2942264695       18.5564540919
  C         3.0400080980        9.4913938996       17.4958721526
  H         2.9669536462       11.1467514222       18.7033142929
  C         0.6106815497        9.4374027182       28.8789721843
  C        -1.8621582257        9.5586947263       27.9050368371
  C        -1.2129217139       12.0376140446       30.1628582512
  C        -1.3030930879       13.3967406557       30.2975927608
  H         6.9933665546       15.0779279304       21.8475218536
  H         6.9945137270       13.5950955789       22.7779213896
  C         5.3964605689       13.6312319939       21.2278121360
  S         2.4976640449        5.4471806770       20.1159600780
  N         2.8879988878        5.9030366862       18.6393255180
  C         3.3018721989        8.0491364649       17.3655715968
  H         3.2995428865       10.1959207166       16.7157113878
  H         0.8022545349        8.5253150337       28.2832102929
  H         0.1382489504        9.0499410612       29.7803526106
  C         1.9225820735       10.0861041283       29.1487544557
  H        -1.7276701429        8.8805539142       27.0660831279
  H        -2.0795378935        9.0052034937       28.8590368721
  C        -3.0679770704       10.4922442943       27.5816694328
  H        -1.3304882459       11.2739213906       30.9647400658
  C        -1.4958654835       14.1951163289       31.5622963984
  H         4.3910181285       13.9747388471       21.2492610017
  H         5.3862322876       12.6276647750       21.5053574078
  C         6.0344462647       13.7073479557       19.8543160512
  C         3.6382109841        7.3102772451       16.2196859837
  H         2.4063012489       10.4738948635       28.2467878170
  H         1.8494193352       10.8976023625       29.8832114257
  C         2.9384628616        8.9967908319       29.6202281583
  H        -2.9571642033       11.3596895463       26.9027905744
  H        -3.2483945695       10.9000840846       28.5331124866
  C        -4.2650456425        9.6557674559       27.1344349721
  C        -1.5255006808       15.6348164204       31.6464930677
  C        -1.8304763619       13.4856913540       32.8197744698
  H         5.5863755606       12.9747727140       19.1673489891
  H         5.7699506490       14.6568238570       19.4633362679
  C         7.5672113549       13.4821313352       19.7456579791
  H         3.7859534581        6.2588049869       16.4420220137
  C         3.8929105881        7.7107385401       14.9166462124
  H         3.2523570092        8.3545354007       28.8778768033
  H         2.4081530303        8.3815476960       30.4052858392
  C         4.2229406156        9.6162240056       30.3037424082
  H        -3.8718400619        9.0663166439       26.2792080039
  H        -4.5442347241        9.0223365863       28.0057389683
  C        -5.4225228296       10.6659684343       26.8822501853
  N        -1.4317918600       16.5378526232       30.5553320144
  C        -1.7753329920       16.3209741528       32.7892215183
  C        -2.1181195446       14.1872035002       33.9903588166
  H        -1.9327522750       12.4432481680       32.7876632732
  H         8.2069754020       13.8755366303       20.5572506708
  H         7.7779678717       12.4709804085       19.5738636781
  H         7.8984454170       13.9446488081       18.8490593573
  S         4.0386450839        9.4149594230       14.3082195073
  C         3.9890795539        6.7300162839       13.8957540899
  H         4.5163137955       10.5650483293       29.7809119817
  H         3.9186761417       10.0339858958       31.3094218538
  C         5.4532455912        8.7053821038       30.2613655015
  H        -5.1730623388       11.6157810281       26.4034861029
  H        -6.0145301376       10.8500197675       27.7980604389
  C        -6.3376739608        9.9371264011       25.9421786932
  S        -1.6249397865       18.0692140451       31.1271072262
  N        -1.9321078704       17.6933846270       32.6652779227
  C        -2.0315165821       15.6698070637       34.0498322521
  H        -2.5051182040       13.6997056726       34.8832844367
  C         4.0895726052        8.7239341929       12.7530086508
  N         4.0654720677        7.3581801677       12.7052461178
  O         4.2177689572        5.5383740520       14.1835562580
  H         6.3308538389        9.2162403590       30.5083786400
  H         5.6642105561        8.4709331323       29.2299192252
  C         5.3248805151        7.4580472257       31.0992094254
  H        -5.8116089890        9.6865441935       25.0500249426
  H        -6.5941366573        9.0041220008       26.4499920398
  C        -7.4907354043       10.8346522419       25.6138355576
  C        -2.4688179114       16.4804571251       35.1208831594
  S         4.3682164906        9.6807999298       11.3284209348
  C         4.2186101654        6.5587626202       11.4559885861
  H         5.0733333066        7.6366103473       32.1640053742
  H         4.4560354719        6.8869272604       30.8645611745
  C         6.5572101502        6.5533187693       31.1725722636
  H        -7.0162889199       11.6355352469       25.0532700806
  H        -7.9662540238       11.1574919840       26.5728429845
  C        -8.5271600441       10.0664397255       24.7952022509
  H        -2.2936424119       17.5573782083       35.1443025377
  C        -3.0106141978       16.2567658523       36.3718324458
  H         4.5506667476        7.1744224774       10.5987930868
  H         4.7698434445        5.6731011887       11.5137114902
  C         2.8415250031        6.0622198902       11.1083585453
  H         7.1948522928        6.9035860636       31.9146409657
  H         7.1712850682        6.5665586116       30.2672151356
  C         6.1424391987        5.1388462881       31.4210366297
  H        -8.7327163906       10.5678182642       23.8044359016
  H        -8.1154324293        9.1466886154       24.5101694746
  C        -9.8754988363        9.9679881713       25.4796554812
  S        -3.5187642771       14.7067016012       36.9545769239
  C        -3.2250095885       17.2732622375       37.3818756365
  H         2.8311219072        5.1733563654       10.4595952563
  H         2.1970301322        5.8253757258       11.9886114049
  H         2.3177109037        6.8254378698       10.5343815292
  H         6.6466217326        4.4938310403       30.6814783776
  H         5.0577101129        4.9541860116       31.3394532702
  H         6.4299372031        4.7872000166       32.4050874019
  H       -10.6227342163        9.5195940817       24.8213686456
  H       -10.1939257066       10.9009183462       25.9299880456
  H        -9.7105822788        9.3119849509       26.3545986095
  C        -3.7292418896       15.3579565848       38.5324294198
  N        -3.6054046000       16.7248273054       38.5807913879
  O        -2.9511295591       18.3799522557       37.1251330666
  S        -4.3577490997       14.4573696102       39.9443697665
  C        -3.9435847476       17.5151583155       39.7811003817
  H        -4.0410027257       18.5968927588       39.4442242633
  H        -4.9263129182       17.2177491693       40.2703484818
  C        -2.8782344986       17.3988304221       40.8636332285
  H        -1.9075885838       17.5036939537       40.4110511117
  H        -2.9753467151       18.1178149221       41.6701240473
  H        -2.9271468173       16.4461739310       41.4601920529
  H         8.0522219685       11.4074373953        3.0596761395
  C         8.4254688236       10.4478076553        3.3804249387
  H         7.5232018880        9.7949517343        3.5076819279
  C         9.0650253760       10.5445317677        4.7914089320
  C         9.3903304351        9.9090960853        2.3122381622
  C         8.1646342142       10.9216005601        5.9541040002
  H         9.4719557354        9.5474928348        4.9334687815
  H         9.9620757362       11.1570002168        4.8388757386
  H         8.8023740448        9.7365936417        1.3660947927
  H         9.9940373640        9.0175839789        2.5073443059
  H         9.9674737484       10.8338697915        2.1879394814
  C         7.3394191707        9.7309434481        6.4325662714
  H         8.7553020422       11.4019774283        6.7182389908
  H         7.4260661967       11.6133645420        5.5469327874
  C         6.7093025556        9.8332208631        7.8286409385
  H         7.9726652917        8.8489083413        6.3986920355
  H         6.6125671115        9.4743229827        5.7276093486
  C         5.4232086027       10.6577431187        7.7575760316
  H         7.5988118922       10.3554504027        8.2318715099
  H         6.5551521880        8.8465258853        8.1830633985
  C         4.1957159578        9.9261383035        7.0724997678
  H         5.1423449652       10.9955931484        8.7027636493
  H         5.7841900217       11.5213452333        7.2430185436
  C         3.0529563116       10.8053586558        6.8247606363
  H         3.7973489197        9.1512547963        7.6094423788
  H         4.5286615389        9.3601616152        6.2157819787
  C         3.4463236511       12.2035669027        6.2225300090
  C         2.6267478481       11.5560330762        8.1131525766
  C         1.8218215406       10.1250849133        6.1749891843
  C         3.0887615728       13.2954264591        6.9929015579
  C         4.0509040370       12.5669256954        5.0014335666
  C         2.6649919594       12.8854116576        8.2702242710
  C         2.1872885067       10.9108537854        9.2893412703
  H         2.0240307039        9.6570044335        5.1671311284
  H         1.4247789580        9.2985445098        6.7248443399
  C         0.6117058847       11.0906545237        6.0496929612
  S         3.4961965105       14.7624622023        6.2731770782
  C         4.0120260772       13.9469997635        4.8358873781
  H         4.4318551466       11.7648610070        4.3805962671
  C         2.3599628333       13.4939873749        9.4662966659
  H         2.1758445041        9.8011675394        9.3210950224
  C         1.8561926568       11.4726190258       10.5061398888
  H         0.9069077841       12.1398158867        5.8730597945
  H         0.1238590725       11.1832148174        6.9994628999
  C        -0.4372968224       10.6648318618        4.9657367737
  C         4.3946753299       14.6791700858        3.5551767127
  C         1.9438933407       12.8294220509       10.6621818355
  H         2.5248066924       14.5466758065        9.5447815410
  C         1.4723704036       11.0024540241       11.7704256660
  H        -1.3218165170       11.3659911803        5.0294510404
  H        -0.6462867264        9.6234652795        5.1439875304
  C         0.0036255351       10.7962698970        3.4879811227
  C         4.2918917623       16.0351429098        3.2556065939
  C         4.9091153683       13.7886459136        2.4585875981
  C         1.5207551162       13.4073434101       11.9235826652
  C         1.2755335782       12.0346717432       12.6564091051
  S         1.0921552199        9.4407313577       12.4011163404
  H         1.0886246145       10.5237101473        3.2566236339
  H        -0.0745709475       11.8947716600        3.3140303904
  C        -0.8701571282       10.1531387064        2.4373142601
  N         3.8860102590       16.9883393250        4.2205999554
  C         4.5235160350       16.5170941787        1.9771664942
  C         5.2423972859       14.2523107433        1.2236228679
  H         4.8840015598       12.7316389928        2.5563391863
  C         0.1830726977       14.2041817951       11.7073053582
  C         2.5482193712       14.2454206318       12.7166424417
  C         0.7864258739       11.5688576724       13.8929889098
  C         0.7922660188       10.1911257219       13.9714788965
  H        -1.1264210021        9.1116172578        2.5828649935
  H        -1.8155157624       10.7014727881        2.5874085487
  C        -0.3833639665       10.3338064737        1.0580052353
  S         3.7793372741       18.4030337364        3.4042799698
  N         4.2855669834       17.8922925903        1.9201661309
  C         4.9981102606       15.6848414436        0.8863682087
  H         5.5383959160       13.5430626536        0.4717747538
  H         0.2779109007       14.9037014268       10.8679522395
  H         0.0330525344       14.8687397715       12.5683879596
  C        -1.0867694597       13.2535479305       11.4458182961
  H         2.6490877960       15.2132122571       12.3162807638
  H         2.1232887166       14.4819371285       13.6958265655
  C         3.8953807650       13.5811132993       12.9566271094
  H         0.4862156609       12.2080018381       14.7187429829
  C         0.4736279739        9.3984641180       15.2645881795
  H         0.2856324025        9.4461259052        0.9648584628
  H         0.1718590740       11.2605404418        0.9306967807
  C        -1.4640121173       10.2610154190       -0.0389247780
  C         5.3619647277       16.2392832560       -0.4003192508
  H        -0.8350487403       12.4357827475       10.7567399590
  H        -1.3930104101       12.7706193015       12.3878434433
  C        -2.2802811255       14.0195359857       10.8907935818
  H         4.4632115169       13.9670297747       12.1255489034
  H         3.9198593190       12.4770585584       12.8068865779
  C         4.5997202313       13.7435822029       14.3190801647
  C         0.3828990480        7.9763402521       15.3543188028
  C         0.1477100810       10.0653182972       16.5629039255
  H        -1.9430731242        9.3020985805       -0.0459537638
  H        -2.2718040668       11.0300241855        0.0600555636
  C        -0.8791369631       10.6078273720       -1.4422651215
  H         5.2464655900       17.3488470524       -0.3912709214
  C         5.6449122591       15.7076701477       -1.6221052175
  H        -2.3195271518       14.0616797977        9.8042741657
  H        -2.2634378512       15.0646325734       11.2908097245
  C        -3.5256914338       13.4503867461       11.4997801345
  H         4.5096198307       14.8032866989       14.6092008676
  H         4.1090063438       13.1984942973       15.1861825866
  C         6.0889195671       13.2773076398       14.2483774216
  N         0.6535753231        7.1006360995       14.2631685167
  C         0.1696089012        7.2553890606       16.5354948788
  C        -0.1926157915        9.3225479430       17.6870269957
  H         0.1004659369       11.0883450937       16.6201331354
  H        -0.2531778752        9.7813659333       -1.8656538497
  H        -0.3532698320       11.5510379711       -1.3403950335
  H        -1.5662640432       10.8605637277       -2.2012456207
  S         6.0002227437       14.0973733965       -1.9590460352
  C         5.7033395252       16.6437576032       -2.7651874273
  H        -3.4314529031       12.3765504891       11.6104227252
  H        -3.6854672662       13.9371355437       12.4395216855
  C        -4.8387878857       13.6277399884       10.7475144463
  H         6.4095867527       13.0666315064       13.2943339483
  H         6.2002109462       12.3838358674       14.9131335863
  C         7.0050730630       14.2871216546       15.0063182993
  S         0.4784672246        5.5619925382       14.7590993155
  N         0.3361540647        5.8703553214       16.3694005018
  C        -0.2279978371        7.8397471672       17.7294850400
  H        -0.3689215076        9.8411696808       18.6151199990
  C         6.2559648559       14.6212787487       -3.6161814231
  N         6.0756761771       15.9586221340       -3.8261463103
  O         5.6433724914       17.8350363660       -2.7332497384
  H        -5.6114607791       13.4561429060       11.5290630170
  H        -4.8456577214       14.6742981621       10.4759097294
  C        -5.1534490502       12.6790058281        9.5416630015
  H         6.8097043425       14.4004419845       16.0585936474
  H         7.9664649439       13.6694659167       15.0035437036
  C         7.3322947407       15.5592906342       14.2900402708
  C        -0.5664615062        7.0795231282       18.9378246205
  S         6.9389756639       13.6286791631       -4.8668599115
  C         6.1142201213       16.5753937516       -5.2366414473
  H        -4.2022689361       12.3235027829        9.1066936586
  H        -5.5770768991       11.7635208920        9.9542321185
  C        -5.9766501912       13.5652569720        8.6266107753
  H         6.4720445500       16.1984637884       14.1383184667
  H         7.6770680341       15.3068756656       13.3215242420
  C         8.2609616319       16.4942630149       15.1182454416
  H        -0.3757828425        6.0067197059       18.8565229209
  C        -0.9672613695        7.4566491485       20.2144788300
  H         6.6624270822       15.9566967876       -6.0122492370
  H         6.6387284820       17.5611966622       -5.2355643145
  C         4.6957290362       16.7678506219       -5.8192772430
  H        -6.2766559018       13.0643417328        7.7030875129
  H        -5.3563945113       14.4138911478        8.3265351411
  C        -7.2918086682       14.1246479546        9.2703005539
  H         7.5927649130       16.8325906859       15.8783432363
  H         9.1251391454       15.9201965502       15.5381782961
  C         8.7451145393       17.6065225336       14.1999783864
  S        -1.4337024939        9.0498287419       20.7109021530
  C        -1.0306780993        6.4009721296       21.2368455519
  H         4.6145000564       17.7961009525       -5.8674067192
  H         3.8526299128       16.3698628395       -5.2626892576
  H         4.7843933834       16.3745074635       -6.8288326898
  H        -6.8738475551       14.9296497392        9.8937361468
  H        -7.9734710218       14.6031163064        8.5157931050
  H        -7.5849246644       13.2040738650        9.8191549449
  H         9.6528112362       18.1248993181       14.5309901794
  H         8.9873716184       17.3766323454       13.1702946588
  H         8.0142002847       18.4228888498       14.1988921988
  C        -1.6982471878        8.3148871599       22.3360474831
  N        -1.5837498171        6.9504013578       22.3534985290
  O        -0.8965444816        5.2001689090       21.0221990467
  S        -2.4438125222        9.1997166645       23.7044935559
  C        -1.6981260155        6.1586425525       23.5780346216
  H        -1.8543083003        5.0769061520       23.3671375619
  H        -2.5478984943        6.5436931608       24.1376227162
  C        -0.3644880214        6.1348471771       24.3699599882
  H         0.4837067068        6.1526067385       23.7297652680
  H        -0.4906143407        5.2603641071       25.0635514985
  H        -0.3605548369        7.0101817793       25.0303097783
