352
i =
  H        -3.4088141474       14.5702777925       15.9503429277
  C        -3.0853253071       13.5181429540       16.0433812628
  H        -4.0410701019       12.8929052104       16.2306560928
  C        -2.0917482538       13.4165614768       17.2098695943
  C        -2.5517573022       13.0363636980       14.7061134415
  C        -2.7390709384       13.5109014289       18.6197752235
  H        -1.7266241352       12.3685786088       17.1372797407
  H        -1.2669641994       14.1203229806       17.0607902082
  H        -1.7814328257       13.6516496527       14.2787066683
  H        -2.2601188850       12.0528242936       14.8816380174
  H        -3.3776939072       13.0016281351       13.9620581085
  C        -1.6029162425       13.6259952214       19.6246947586
  H        -3.2991283292       12.6004485616       18.8316993864
  H        -3.4733785452       14.3102258732       18.6235726162
  C        -2.2331007383       13.5333142975       21.0066692555
  H        -0.7967269399       12.8883162484       19.3921937685
  H        -1.1446494966       14.5926594752       19.5663710902
  C        -1.1622935900       12.8955591023       21.8693781823
  H        -3.1045457649       12.9123671993       21.0529692721
  H        -2.5224693045       14.5327716981       21.3372239721
  C        -0.1167241612       13.8892457714       22.4289230720
  H        -1.6613809428       12.5316093128       22.8034693917
  H        -0.7550670375       12.0306033629       21.3646412881
  C         1.1145448316       13.1595408279       23.0576915154
  H         0.3038642136       14.4090152048       21.5527686448
  H        -0.5793376321       14.5615637981       23.1188388912
  C         1.4775593225       11.8269921012       22.4370684233
  C         0.8366929032       12.4772900761       24.3875100568
  C         2.3516247292       14.0730399068       23.3294403823
  C         1.4899877698       10.7521749830       23.3469671959
  C         1.9016358625       11.4917959723       21.1672635271
  C         0.9153029012       11.1155835172       24.5238933221
  C         0.3636141914       13.1352426221       25.4997292769
  H         2.5074319884       14.6623736314       22.4542622267
  H         2.0737158461       14.7384906424       24.0641284044
  C         3.6813976315       13.3785088725       23.8315025538
  S         2.0577608955        9.3604581404       22.6138761097
  C         2.1479611791       10.1626051696       21.1044939085
  H         1.9784927310       12.2251432879       20.4227405288
  C         0.5174240679       10.5488909295       25.6458449366
  H         0.3852070196       14.1973360539       25.5444539428
  C         0.0231806320       12.5750587742       26.6646893366
  H         3.9013160549       12.6650739552       23.1138854066
  H         3.5898971995       12.8320009477       24.7382302886
  C         4.8316334729       14.4128778639       23.9734250989
  C         2.6717244655        9.4909385950       19.8698809311
  C        -0.0207953884       11.2095751863       26.7623471130
  H         0.6426979611        9.4746735889       25.8260528106
  C        -0.4690952470       12.9833287787       27.9230887938
  H         5.6044682701       14.0824568634       24.6488399771
  H         4.4662472804       15.3164652314       24.4795411331
  C         5.3966947426       14.7461764556       22.6290796821
  C         2.7378856432        8.0984212486       19.6935253843
  C         2.8411737465       10.3377279981       18.6256848645
  C        -0.5006387038       10.5469665820       28.0144537286
  C        -0.7687125335       11.9027578610       28.6737464641
  S        -0.5223065639       14.4896238251       28.7997249853
  H         5.6949627019       15.8400721271       22.5450804620
  H         4.6356519235       14.6037723624       21.9622156390
  C         6.5107264642       13.8480244751       22.0601040296
  N         2.7630365201        7.2344589533       20.7311943506
  C         3.0119551160        7.5482821794       18.4809508678
  C         3.1452561034        9.8025705418       17.3834944507
  H         2.9594067487       11.3688312324       18.7483609966
  C         0.4727664849        9.6975996963       28.7143799176
  C        -1.7444423369        9.7915977666       27.7957533997
  C        -1.2655314603       12.2552398799       29.9795743085
  C        -1.1917582278       13.6166537094       30.1691751117
  H         7.4586218179       14.3508168680       22.3536885241
  H         6.4819745608       12.8570300212       22.4365183656
  C         6.3814669792       13.8005414835       20.5236498918
  S         2.8902292302        5.7214570738       20.1142271417
  N         3.2205787653        6.1498493917       18.5402993863
  C         3.1990574654        8.3001998692       17.2572283640
  H         3.2756497683       10.3547543033       16.5123471578
  H         0.6975096197        8.7944264170       28.1212937250
  H        -0.0132156276        9.3561698809       29.6465741255
  C         1.8566447061       10.3663052230       29.0405476925
  H        -1.5491609529        8.9846127037       27.1374223046
  H        -2.0959904731        9.2677750567       28.6429605972
  C        -2.9680572875       10.6124603613       27.2667457060
  H        -1.5138699011       11.4575470074       30.6809621606
  C        -1.6139855818       14.3063227367       31.4415642263
  H         5.9923482901       14.6570552880       20.0533186391
  H         5.7821600907       12.9740765033       20.3503013250
  C         7.7174087183       13.5600252595       19.9412320021
  C         3.5231519367        7.6413549999       16.0741569992
  H         2.4706574277       10.3288044036       28.1407788577
  H         1.7284080183       11.4348977336       29.3264847602
  C         2.6618739321        9.4790260380       29.9870020179
  H        -2.7445441010       11.0716780862       26.2774173062
  H        -3.2590095016       11.3244211076       27.9711939274
  C        -4.1486808963        9.6558981770       27.0492473912
  C        -1.5900193879       15.6977730854       31.6498678353
  C        -1.7860261139       13.5146487849       32.6559072796
  H         8.2063941112       14.4920670763       20.0233223124
  H         8.3872111805       12.9424808055       20.4607538984
  C         7.7556318672       13.2730070974       18.4212738044
  H         3.5690109989        6.5791677608       16.1803219023
  C         3.8753519220        8.0553416720       14.8105737790
  H         2.6366399751        8.3863340899       29.8920469496
  H         2.2997538342        9.5249920672       31.0430853794
  C         4.1984156041        9.8292713419       30.0656148554
  H        -3.9067613620        9.0015292315       26.2193129073
  H        -4.2925557299        8.9357618890       27.8697227612
  C        -5.3156209735       10.5402520542       26.9961383294
  N        -1.3152813984       16.6593696995       30.7267022620
  C        -1.9016338614       16.2955910171       32.8761706897
  C        -2.0253200759       14.1382364028       33.8893773960
  H        -1.7357056228       12.4687165145       32.6006643359
  H         6.6980496914       13.1732238006       18.2229466545
  H         8.1780792946       14.0516047480       17.8583411216
  H         8.3270589748       12.4022543543       18.1647431157
  S         3.9921658764        9.6622239790       14.3130657939
  C         4.1247646661        7.0642586422       13.7363688073
  H         4.4182601432       10.6737854345       29.4033766588
  H         4.3757503620       10.1720207882       31.0404933104
  C         5.2674356905        8.8081668240       29.6596389893
  H        -4.9449761964       11.3211052661       26.2910663193
  H        -5.6814400276       10.9083529291       27.9531293580
  C        -6.4998727850        9.7382687772       26.4081213959
  S        -1.5655528707       18.1395095644       31.3363111552
  N        -1.7673387351       17.6711146998       32.8436375511
  C        -2.1726734895       15.6173812038       34.0571568199
  H        -2.2150367454       13.4903168734       34.7804776308
  C         4.3478745943        9.0932783707       12.7090446594
  N         4.3218069884        7.7249078426       12.5939575041
  O         4.0822038155        5.8755450006       13.9172514255
  H         6.2143001211        9.3215983463       29.5474706214
  H         4.9595484148        8.4133030827       28.6668498632
  C         5.4150950141        7.7217666881       30.6900367001
  H        -6.2389725804        9.0745533836       25.6695228595
  H        -6.8803398135        9.1634433364       27.2421543577
  C        -7.6189620320       10.5369923926       25.8469058756
  C        -2.3167810897       16.2876001686       35.3102951037
  S         4.7421266752       10.0611162462       11.3300438129
  C         4.3610745597        7.0464414643       11.3231542135
  H         5.8442776895        8.2092771489       31.6163660579
  H         4.4592616821        7.2142369273       30.8988674907
  C         6.4624582526        6.7013501343       30.3564185137
  H        -7.2061570317       11.2717099332       25.2250928167
  H        -7.9415266073       11.1074226008       26.6909546315
  C        -8.7893199018        9.7447395942       25.2632872363
  H        -2.0101374503       17.2785742387       35.3623801320
  C        -2.8959319847       15.8775050701       36.5000741535
  H         4.8058905573        7.6680847827       10.5492571264
  H         4.9904336760        6.1372158254       11.3860811267
  C         2.9500310607        6.5822549659       10.6967755191
  H         7.4089020287        7.1009975407       30.6788173419
  H         6.5775435484        6.3935359701       29.3565622612
  C         6.1848763038        5.3837055105       31.1849110080
  H        -9.1140531633       10.1053197966       24.2247143013
  H        -8.5000327325        8.7052468144       25.0075313919
  C        -9.9184944543        9.7118633956       26.2771931582
  S        -3.6201805765       14.3301205005       36.7920116597
  C        -3.0009631073       16.8210878558       37.5840113435
  H         2.7323510204        7.2544328161        9.8272165026
  H         3.0065439983        5.5689174686       10.2505079150
  H         2.0181833430        6.6339687456       11.2910907772
  H         6.5181782428        4.4544728658       30.8573216487
  H         5.1396615004        5.2694919931       31.4169641785
  H         6.6332251748        5.5292556846       32.1931105922
  H       -10.0037170765       10.5333272330       26.9497800791
  H        -9.8051209982        8.8154225732       26.8847215793
  H       -10.8640578034        9.7738866155       25.7160186572
  C        -4.0468957708       15.0091673207       38.3485473667
  N        -3.7117022197       16.2977440156       38.5690839506
  O        -2.4010978452       17.9392851380       37.5578682915
  S        -4.7289399904       14.0619032889       39.7265631905
  C        -3.7663452749       16.9943400312       39.8718675848
  H        -3.5454335828       18.0669517131       39.7234085286
  H        -4.6878463949       16.7918235921       40.3556316234
  C        -2.5897871361       16.4828419938       40.7883501892
  H        -2.9986462285       16.4234736456       41.8015227337
  H        -2.2039560595       15.5213176146       40.4844394113
  H        -1.8343106671       17.2559929787       40.8151926873
  H         7.2782589341       10.6883560811        3.8461097833
  C         8.1898145458       10.0702513156        3.8578566792
  H         7.7505032970        9.1029980933        4.0988820496
  C         9.0217922388       10.4958291058        5.0737728682
  C         8.8874213441       10.1000794636        2.4369306597
  C         8.1414158622       10.7266567567        6.3191502984
  H         9.6244050205        9.6197405650        5.2938375938
  H         9.6613123045       11.3403800694        4.7816337377
  H         9.0535512779       11.1203411859        2.0835420549
  H         8.1833294647        9.7249097195        1.7668560690
  H         9.8456970472        9.5249010660        2.3858689836
  C         7.5014267567        9.4696739030        6.8355913567
  H         8.7579807658       11.0927934933        7.1229624228
  H         7.4649338482       11.5488778221        6.0385358388
  C         6.4034376425        9.7141579862        7.9574449995
  H         8.2452785584        8.7113387985        7.0144021874
  H         6.9557372737        9.1339603285        5.9086860362
  C         5.1875068018       10.5357595427        7.5930624701
  H         6.9938148664       10.3366831923        8.6918301493
  H         6.1559798448        8.7904949613        8.4669796497
  C         4.0372324889        9.7587012634        6.9166532315
  H         4.6946432571       11.0823810062        8.4718887810
  H         5.5222587249       11.3862379896        7.0048865586
  C         2.7895857298       10.6325508115        6.6855240517
  H         3.7516898603        8.9536098453        7.5977459653
  H         4.3993104178        9.2087735190        6.0160525106
  C         3.2175488830       11.9420678345        6.0364296097
  C         2.3602277746       11.2954497999        7.8977868360
  C         1.5972609176        9.8776371749        5.9888753937
  C         3.1012778809       13.0397217072        6.8513951145
  C         3.9010719941       12.3320101423        4.8192962350
  C         2.5339939124       12.6351185451        8.0241152651
  C         1.8582040756       10.6720971896        9.0241189784
  H         2.0487632110        9.6662286010        5.0033326387
  H         1.3376762034        8.9087884820        6.5365884551
  C         0.3429499152       10.7358857849        5.7343547031
  S         3.6680987019       14.5125265543        6.1754660802
  C         4.0460917981       13.6615552488        4.7674934471
  H         4.0805812868       11.5745966913        4.0533338107
  C         2.1031589823       13.2483288226        9.1757745293
  H         1.6583896216        9.5855720526        8.9344080910
  C         1.4610641243       11.2939144168       10.1786718651
  H         0.5437297695       11.7408097040        5.3088031650
  H        -0.1752680127       10.9969095507        6.6896313455
  C        -0.5792660650       10.1169254308        4.6883011451
  C         4.6798036684       14.4120438732        3.6372733188
  C         1.5381700184       12.6388570780       10.3405496068
  H         2.2142225789       14.2603450012        9.1987217297
  C         1.1155228859       10.8590506424       11.4410708750
  H        -1.6215024312       10.5173988136        4.8026972673
  H        -0.6151222931        9.0602763048        4.9383119761
  C        -0.1705593602       10.3415061280        3.2208216206
  C         4.5691897751       15.8088992478        3.3087335527
  C         5.1209919969       13.6277648325        2.4590612522
  C         1.1498291530       13.3268070727       11.6081464477
  C         0.9240876013       11.9443774555       12.2600191577
  S         0.9743820273        9.2495769121       12.1222384756
  H         0.8187296167       10.0313099226        2.9389069124
  H        -0.3723394977       11.4108279866        3.0450461382
  C        -1.1889401581        9.6312423163        2.3226319414
  N         4.2898206827       16.8137078718        4.2564221060
  C         4.7792045037       16.3636979867        2.0609378161
  C         5.2823244619       14.1231136961        1.1703353450
  H         5.2478186568       12.5599519110        2.5685873500
  C        -0.1884617361       14.2006105422       11.4946331091
  C         2.3664772731       14.0681629647       12.2219783726
  C         0.5767227574       11.4790974406       13.5183158586
  C         0.4870965497       10.1144879718       13.5604723459
  H        -1.5477321343        8.8337020330        2.9351960419
  H        -2.0413444974       10.2972586936        2.2347641708
  C        -0.7507397450        9.1120855219        0.9814642816
  S         4.2517482996       18.2378775518        3.5826471275
  N         4.6165179446       17.7529505247        2.1002428164
  C         5.0441567205       15.5745778980        0.9202229959
  H         5.5679941634       13.4172072594        0.3846340587
  H        -0.0533543806       15.0216656889       10.7408240788
  H        -0.4320974566       14.6659904147       12.4533981346
  C        -1.3233901775       13.3306698749       11.0499181693
  H         3.2344823686       13.9388505022       11.5402907558
  H         2.2032100942       15.1453234055       12.1306296071
  C         2.5891058290       13.7981844524       13.7012618930
  H         0.2961609906       12.1469343039       14.2890747548
  C         0.3413487096        9.4043899691       14.8733323903
  H        -1.5102091063        8.4774107530        0.4829638638
  H         0.0731815479        8.4311203461        1.0162252300
  C        -0.1770166441       10.2232511933        0.0881892000
  C         5.1855405128       16.1613682983       -0.3591695359
  H        -1.0822022146       12.5462019616       10.3496241438
  H        -1.6179487013       12.6724003050       11.8938685911
  C        -2.4901871561       14.1757579513       10.5021957756
  H         2.6436450585       12.7751641531       13.8798806361
  H         1.6824170593       14.0667584039       14.1474579331
  C         3.7693193115       14.3090115451       14.4430470816
  C         0.3785307266        8.0090730745       15.2428159030
  C         0.0597796196       10.2041003339       16.0973909763
  H         0.0929527477       10.9996331979        0.7375467309
  H         0.8457505696        9.9629336001       -0.1810976310
  C        -1.0507695429       10.5174020114       -1.1365767692
  H         4.7782082441       17.1509322298       -0.3774665063
  C         5.4146495506       15.7074488368       -1.6655594992
  H        -2.1015729281       14.8544586199        9.7142110515
  H        -2.9039575927       14.7372055837       11.2951390344
  C        -3.5380081652       13.2476878479        9.9883800104
  H         3.7234066022       15.3568201075       14.4598346145
  H         3.5937043369       13.9816160398       15.4621762471
  C         5.1550082255       13.6885311105       14.1627828081
  N         0.5914592410        7.1309404851       14.2329377143
  C         0.0716076174        7.4043482692       16.4196383400
  C        -0.1606933562        9.5890084698       17.3526472855
  H         0.1959147291       11.2666059926       16.0632259402
  H        -2.0915151390       10.7699983519       -0.8526978299
  H        -1.0422187952        9.7072357142       -1.8606250154
  H        -0.5951238293       11.2760398495       -1.7038691542
  S         5.8385845382       14.1363231616       -2.1363433651
  C         5.3476836638       16.7410156194       -2.7537781426
  H        -3.2432018243       12.9471766731        8.9424509343
  H        -3.5537865980       12.3451640211       10.6480516202
  C        -4.8680902362       13.8360799169       10.0165604630
  H         4.9689450347       12.9955624754       13.3500224115
  H         5.2849886131       12.9942449126       14.9694895147
  C         6.3241479365       14.6685998585       14.0492375450
  S         0.5104228211        5.6303916313       14.8702554105
  N         0.1735370927        6.0233414122       16.4167409202
  C        -0.2946537268        8.1677869520       17.5726942430
  H        -0.4013165226       10.2233766933       18.2121908322
  C         5.9344794478       14.7797718330       -3.8016764749
  N         5.8654687771       16.1365568308       -3.8964222102
  O         5.1182333502       17.9348892327       -2.6066560313
  H        -5.2663916612       13.6929577179       11.0515885101
  H        -4.7892389307       14.9128769463        9.8236977740
  C        -5.8167134419       13.0880498175        9.0153658992
  H         7.2480502625       14.1028754285       13.8504712276
  H         6.1747595267       15.3840089272       13.2671434277
  C         6.4756541390       15.5642728521       15.2835144434
  C        -0.5273693108        7.5333983046       18.7820401164
  S         6.1974545484       13.7902773363       -5.2254758282
  C         5.8355649089       16.8634513814       -5.1854159379
  H        -5.4549934587       12.9622578006        7.9978314428
  H        -6.1614902350       12.0926101456        9.2799436499
  C        -7.0549620417       13.9416117875        8.8050367842
  H         6.2730468555       15.0700292541       16.2266593324
  H         5.6599457586       16.3615174072       15.2153927558
  C         7.8812180789       16.2153969791       15.1848131014
  H        -0.0718698985        6.5465509077       18.8734414963
  C        -1.0275057840        7.9617926984       20.0000043263
  H         6.6240472912       16.5100485150       -5.7916177655
  H         6.0271388104       17.8927606149       -5.0377879498
  C         4.4521377678       16.8857018873       -5.8577594287
  H        -7.4505318385       13.8769563357        7.7796924344
  H        -6.8279897625       15.0238462082        8.9434701235
  C        -8.2009304220       13.5653669644        9.7201431508
  H         7.8985406534       16.7739946246       16.0957143999
  H         8.5840103146       15.4724552772       15.1649415613
  C         7.9370780717       17.1753479815       14.0499362336
  S        -1.5752762188        9.5347871371       20.4292916122
  C        -1.2676839257        6.9101520450       21.0405959747
  H         3.9640044106       17.8957200530       -6.0616950893
  H         3.9216731062       16.4144286556       -5.1479711795
  H         4.4462759595       16.2575817722       -6.7831166613
  H        -8.7722908471       14.4476380605       10.0257803244
  H        -8.7857061882       12.8047810634        9.3290521923
  H        -7.6912050393       13.1587156297       10.5853510095
  H         6.9643497936       17.7416527033       13.9488899909
  H         8.7646153275       17.8717330365       14.3107819096
  H         8.1745855193       16.6201495043       13.1353042417
  C        -1.9704126549        8.7773971459       21.9915675316
  N        -1.8460758314        7.4526775567       22.1018762237
  O        -0.9853395282        5.7035398675       21.0053478824
  S        -2.6598605476        9.5851723074       23.3894253548
  C        -2.1203594783        6.6946245482       23.3151559159
  H        -2.2207023216        5.6627126298       22.9831195323
  H        -2.9927683749        6.9981150573       23.8958932264
  C        -0.9047042522        6.7742476070       24.2804336067
  H        -0.8292883638        5.8279134181       24.7092736121
  H        -1.0917986124        7.4841441656       25.1542982289
  H         0.0376303473        6.9890798941       23.8104309240
