352
i =
  H        -3.2181146505       14.6785308510       16.4528810555
  C        -3.0849915595       13.6091869104       16.5122590667
  H        -4.0546581374       13.1387663932       16.7450260734
  C        -2.0369781396       13.2917630777       17.5198501879
  C        -2.6402346200       13.1059490763       15.1305912321
  C        -2.3537286913       13.7837179103       18.9030506039
  H        -1.8808143648       12.2369886140       17.5390662435
  H        -1.1898151469       13.7521188327       17.1535887818
  H        -3.1999792910       13.6790013047       14.3838571758
  H        -1.5772537013       13.1601537924       14.9127953336
  H        -2.8536417032       12.0885779133       15.0731368981
  C        -2.6915210711       12.6406821121       19.9084300159
  H        -3.0426652182       14.6042121743       18.8945535238
  H        -1.5154020113       14.2901609391       19.3040978733
  C        -2.6853029328       13.0743165998       21.3725142356
  H        -3.6982952635       12.1535684836       19.6267544819
  H        -1.8614927055       11.9122050808       19.7344963165
  C        -1.6271382664       12.2877794777       22.1522935302
  H        -3.6723707185       12.7910201660       21.6890964794
  H        -2.4806073395       14.1875107876       21.5063842968
  C        -0.4098008203       13.2280831920       22.3186476269
  H        -1.9531144781       11.9679980778       23.1213769528
  H        -1.3716610854       11.3151032369       21.7295392082
  C         0.7712271531       12.7630697143       23.1565359269
  H        -0.0388690244       13.3820488220       21.3456950900
  H        -0.6933922067       14.2253857885       22.6208539804
  C         1.3016156399       11.4039275008       22.5900068128
  C         0.4002162011       12.1222943770       24.3988868307
  C         2.0363126259       13.7957472846       23.2340615445
  C         1.1821362990       10.3473910624       23.4842343295
  C         1.8331455473       10.9924941098       21.3363911366
  C         0.5429567855       10.7906105786       24.5963917093
  C        -0.0923202563       12.7384221680       25.5207332971
  H         2.2336401310       14.2396955236       22.2479455494
  H         1.7882869048       14.7110822326       23.8281761692
  C         3.3227267998       13.0984057230       23.8162810245
  S         1.6212508487        8.8758877617       22.7409794758
  C         2.0773762021        9.6238726554       21.2895524210
  H         1.9140563882       11.7016870769       20.4753890177
  C         0.2108419923       10.1715670287       25.7325673585
  H        -0.2359608468       13.7220119010       25.4763790502
  C        -0.4429529718       12.1227103063       26.7237348936
  H         3.5662192207       12.1772897686       23.2484650159
  H         3.1603886022       12.8531692134       24.8472230703
  C         4.5915715284       13.9157331370       23.8926488397
  C         2.5605472383        8.8885311822       20.0789265184
  C        -0.4311450761       10.7448663252       26.7767276539
  H         0.3089490959        9.0867185537       25.6931674492
  C        -0.9084933902       12.4861760335       27.9719972796
  H         5.3875376243       13.4791466253       24.4612422203
  H         4.4384900628       14.8772999078       24.4383904936
  C         5.1435539093       14.2948745387       22.5877619211
  C         2.4635813153        7.5147149709       19.8375444383
  C         2.8665777917        9.6804810842       18.8502285906
  C        -0.9669853403       10.0745111858       28.0137637281
  C        -1.1732487640       11.4438834424       28.7522452343
  S        -1.1516330115       14.0038801617       28.7058130459
  H         5.8789541066       15.0569371230       22.6988687382
  H         4.3120973761       14.6341225078       21.9526156811
  C         5.8598657489       13.1835695858       21.9324760989
  N         2.0864950985        6.6517214646       20.8402629899
  C         2.6098709352        6.8755197019       18.5662487481
  C         3.1363015715        9.0422125648       17.6273448642
  H         2.9674130417       10.7660192930       18.8216600450
  C         0.1844014862        9.1899187338       28.6344434422
  C        -2.1840841189        9.2052719568       27.8458084089
  C        -1.6047130127       11.8065526602       30.0130986672
  C        -1.6327430107       13.1756077315       30.1374526859
  H         6.9678530830       13.2636858160       21.9326968601
  H         5.6541765980       12.3231860538       22.4790518496
  C         5.3441758403       13.0748026267       20.4798761141
  S         2.0146734406        5.1389137936       20.1056929304
  N         2.5021988770        5.5189927092       18.6130230865
  C         3.0022203582        7.6225797835       17.3974321726
  H         3.5176306345        9.6401493247       16.8156464327
  H         0.8577657980        8.7888063446       27.8768289233
  H        -0.2409520273        8.3423298156       29.2667904150
  C         1.2279061252       10.0445109156       29.4030629523
  H        -1.8700984348        8.2524188259       27.3238623230
  H        -2.6202919695        8.8837129357       28.8091113696
  C        -3.2313300581        9.9924913726       27.0771041171
  H        -1.6686436108       11.0332334680       30.8049905514
  C        -1.7493567372       13.9190708329       31.4572596676
  H         4.2781534875       12.8011725818       20.5362831629
  H         5.7069603198       12.2217855974       20.0352304828
  C         5.5581044310       14.2126801286       19.4566665236
  C         3.2399693018        6.9458214439       16.0949784085
  H         1.7480200745       10.7211189956       28.7693431983
  H         0.8259998351       10.7163182918       30.1446002997
  C         2.4281330934        9.2286441571       30.0553836121
  H        -2.8488462356       10.2486058944       26.1008083652
  H        -3.5029134004       10.9617667266       27.5039752362
  C        -4.4824136229        9.0891314979       26.7351622126
  C        -1.6335180852       15.3212497427       31.6908893118
  C        -2.0209584458       13.1247442697       32.6696456891
  H         4.6322575822       14.2259540940       18.8572695347
  H         5.5245381940       15.2413281225       19.8526578595
  C         6.8499455245       13.9939332651       18.6100421608
  H         2.9604758144        5.8846570731       16.1362753724
  C         3.5642254704        7.3636298247       14.8330459454
  H         2.7405803668        8.5555838522       29.2258986552
  H         2.0663874719        8.7396397207       30.9476075835
  C         3.7198700486       10.0630268378       30.4771057601
  H        -4.0551086823        8.1293713277       26.4350547010
  H        -5.0271312161        8.8584303992       27.6375515628
  C        -5.4562143002        9.7307764729       25.7502733727
  N        -1.4420816724       16.2894984407       30.7206065032
  C        -1.9675083450       15.8779226519       32.9172749509
  C        -2.3199623027       13.6955873338       33.8860607900
  H        -2.1853758200       12.0847778175       32.6431255457
  H         7.0449235646       12.9959464902       18.1350832080
  H         6.9148590545       14.7978114781       17.8737325715
  H         7.6773216634       14.1761317886       19.2866510716
  S         3.8111356176        8.9685679467       14.3091322773
  C         3.7628165074        6.3350811771       13.7598296529
  H         3.7288346729       11.0021051586       29.8940852651
  H         3.6804906066       10.3247788769       31.5164556913
  C         4.9377370210        9.2845174059       30.2324839211
  H        -5.2609213765        9.6660351516       24.7136590761
  H        -5.4431927868       10.8144371879       25.9634451798
  C        -6.8508328484        9.2273092079       26.0988303371
  S        -1.4371424114       17.7553831934       31.4810323692
  N        -1.8903344540       17.2604361463       32.9199219327
  C        -2.3054081675       15.1341069812       34.0719492336
  H        -2.5361949320       13.0996692600       34.7293358686
  C         4.1135163230        8.3218568256       12.7188294783
  N         4.0529382916        6.9656105219       12.6441635808
  O         3.5080864469        5.1456768444       13.9333667381
  H         5.7744421569        9.9712704258       30.5606220372
  H         5.1220487072        9.1325508239       29.1474784677
  C         5.0535176629        8.0059024844       30.9752042482
  H        -6.9614217541        8.1596033304       26.0220348628
  H        -7.1964127260        9.5361290942       27.1068204519
  C        -7.8669209982        9.8829260579       25.1935203755
  C        -2.6632087840       15.7703962122       35.2912082618
  S         4.1286152960        9.2697646989       11.1706453507
  C         4.0267123046        6.3631460272       11.3582462400
  H         5.5660650641        8.3357062293       31.8836434719
  H         4.1607315367        7.6031538414       31.3186875503
  C         5.9918582585        7.0371775070       30.1982476837
  H        -7.4150438089        9.5540563237       24.2236836220
  H        -7.8001356399       10.9741484395       25.2523059148
  C        -9.2991615063        9.3826811135       25.4311371970
  H        -2.4327748764       16.8463658965       35.2471295942
  C        -3.1824001900       15.4237412068       36.5202963393
  H         4.9000980720        6.6742604808       10.7145588242
  H         4.2013285825        5.3364096188       11.5354554658
  C         2.6562652597        6.3447911391       10.6630405198
  H         6.9658649385        7.4950631434       30.1323383119
  H         5.5331955428        6.8636114498       29.1712419470
  C         6.1783588954        5.7466073094       31.0722104530
  H        -9.9234622497        9.1807751355       24.6063225924
  H        -9.3416474488        8.3468410865       25.6634966423
  C       -10.1351416031       10.1254864854       26.5413387453
  S        -3.7478636236       13.8795223999       36.9202513958
  C        -3.4029177920       16.4834510524       37.5532200801
  H         2.6200570381        5.5726843779        9.9099321677
  H         1.8999312677        6.2057416759       11.4295555398
  H         2.4380807413        7.2760906360       10.1019616140
  H         6.3401677941        6.0476047237       32.1108018683
  H         7.0282047156        5.1753682391       30.7321934210
  H         5.3193727270        5.1022455650       31.0137712445
  H       -10.7248062689        9.4579348026       27.1604267102
  H       -10.7540131950       10.9385191640       26.2489249056
  H        -9.5564764354       10.6568467158       27.2851582237
  C        -4.1528903829       14.5712845921       38.5096143417
  N        -3.9589523916       15.9234958712       38.6605488003
  O        -2.9841835716       17.6043344691       37.4510453399
  S        -4.8224053448       13.6785303892       39.8673203201
  C        -4.1482649428       16.6896310865       39.9271885484
  H        -4.4852665608       17.7493053804       39.7745417140
  H        -4.9589265157       16.3651435238       40.5131042764
  C        -2.8616770560       16.6327614260       40.8479240832
  H        -2.0364853541       17.0870725470       40.2789101558
  H        -2.9465184027       17.1335757046       41.8135739647
  H        -2.5734888990       15.5872686045       41.0512758719
  H         7.1851674017       11.0239614240        2.6678645824
  C         7.9268241567       10.3651522576        3.1302904331
  H         7.3752077008        9.4255219110        3.3952803548
  C         8.6380166870       11.0763819866        4.2878037387
  C         8.9262236768        9.9145054309        2.0668425822
  C         7.5670097874       11.2606677293        5.3676865736
  H         9.4304065139       10.5487273289        4.7341140314
  H         9.1523664377       12.0074054859        4.0347726021
  H         8.5093894967        8.9931148897        1.6030143710
  H         9.8832423241        9.6328349423        2.5070291968
  H         9.0681091603       10.6999243746        1.3494073131
  C         7.1423602131        9.8651673739        6.0155255707
  H         7.8236021005       12.0329505462        6.1441789737
  H         6.7464760277       11.6901989608        4.8902757574
  C         6.6276308085        9.8754375784        7.4246488336
  H         7.9848799289        9.1510326488        5.9576110882
  H         6.4155822068        9.3592404930        5.3466490843
  C         5.3317752332       10.6372918968        7.5837387837
  H         7.4341515306       10.2779481385        8.0534155762
  H         6.4320358862        8.8508146233        7.7791464721
  C         4.1684000809        9.9041509582        6.8273669995
  H         5.0930246875       10.5458414334        8.6387542792
  H         5.4858802158       11.6876472147        7.3382556373
  C         2.7834136341       10.6621900249        6.7186950270
  H         3.9179039462        8.9052938869        7.1203920773
  H         4.5339109676        9.8157342791        5.8154990615
  C         3.1581344847       11.9393852532        6.0647119009
  C         2.3768458938       11.3070638283        7.9829842882
  C         1.6743528208        9.7676965339        5.9929006066
  C         2.9651580583       13.0388168184        6.9171239035
  C         3.6602006360       12.3078283567        4.8210528802
  C         2.3861792790       12.6708367585        8.1100665259
  C         2.0357654272       10.5921246142        9.1473819216
  H         2.1555273692        9.4138370886        5.0497514214
  H         1.5403714668        8.8255064289        6.5475718227
  C         0.3275306811       10.4876404088        5.8502052402
  S         3.5215670251       14.5371866973        6.2268919743
  C         3.8680625558       13.6658942884        4.7616030232
  H         3.7942487811       11.4849857833        4.0963002125
  C         2.0794282238       13.2582656768        9.3056354478
  H         1.9446162872        9.4380682542        9.0071949905
  C         1.6776084289       11.2025859345       10.2871712731
  H         0.6224825887       11.3521475976        5.3534122275
  H        -0.0662956351       10.8211651117        6.8323383154
  C        -0.6870881584        9.6548155315        5.0768173218
  C         4.3030573748       14.4512250159        3.5307264447
  C         1.6720166442       12.5320214331       10.4308465780
  H         2.1482817179       14.3523246628        9.4210327938
  C         1.1899302917       10.7438846826       11.4663469807
  H        -1.7183349102        9.9456052054        5.2920418906
  H        -0.5554760430        8.6329038324        5.3892894859
  C        -0.4355561484        9.7165346713        3.5599615012
  C         4.2404123565       15.8452002014        3.2668157877
  C         4.6578554163       13.6380045360        2.3365742835
  C         1.3704643738       13.1578420722       11.7587412469
  C         1.0023838047       11.7700798144       12.3403518298
  S         0.8519358234        9.1709364767       12.0906484085
  H        -0.0179109863        8.8148800838        3.2186442018
  H         0.3070484404       10.5102165596        3.2792762800
  C        -1.7978165263        9.8234003056        2.8181567459
  N         3.7074160597       16.6944083056        4.1730766155
  C         4.3996648651       16.4137415854        2.0176067972
  C         4.8216179157       14.1840836307        1.0741584579
  H         5.0296021724       12.6466644358        2.4751849693
  C         0.0619251230       13.9573383945       11.7150527903
  C         2.6334067090       13.8364808454       12.2717807421
  C         0.5754933182       11.2623292406       13.5748495229
  C         0.4297008117        9.8976421716       13.6135944941
  H        -2.5847421360        9.1847522736        3.2861848012
  H        -2.1612453399       10.8712445403        2.8611797451
  C        -1.6436279767        9.3949295785        1.3747064801
  S         3.5923346672       18.1666626791        3.5158716491
  N         4.1359789213       17.7903604233        2.0078918615
  C         4.6870287376       15.6403615752        0.8747756450
  H         5.1895828886       13.4871164164        0.3728596910
  H         0.1727791299       14.9083966551       11.1490330119
  H        -0.2462209007       14.2604807253       12.7191017814
  C        -1.1425405263       13.1629569269       11.1562449167
  H         3.2059311365       14.2999486384       11.4610019794
  H         2.3110083123       14.5577161427       12.9515781225
  C         3.5754237993       12.9727766583       13.1092222690
  H         0.4344845685       11.9935550047       14.3376557743
  C         0.2200169868        9.0880927463       14.8314188254
  H        -2.5450209994        9.6504791236        0.9326231269
  H        -1.6856729432        8.2744340778        1.3256581095
  C        -0.5420075032       10.0107690748        0.5380246767
  C         4.8395799857       16.3285537089       -0.3181063775
  H        -0.8810336005       12.5747580485       10.2669454060
  H        -1.4572052614       12.3713426329       11.9132928707
  C        -2.3370244239       14.0843938226       11.0051376204
  H         3.8567632781       12.0313269108       12.5784709452
  H         2.8684816481       12.5283222923       13.8211609371
  C         4.6181368816       13.8348380283       13.8534187036
  C         0.1668239722        7.6674065440       15.0154756799
  C         0.1151664257        9.8744546696       16.0601423578
  H        -0.5674940344       11.0622090048        0.6130335434
  H         0.4037303119        9.6019470103        0.8576973744
  C        -0.7541969040        9.6512757944       -0.8966439031
  H         4.7076856617       17.4295774311       -0.2050921145
  C         5.1767507298       15.8670184920       -1.5756751137
  H        -2.0959149996       14.8036675439       10.1804412050
  H        -2.4423686438       14.4886599684       11.9860371842
  C        -3.4924170142       13.1743635955       10.6301288458
  H         5.2036111037       14.2271351388       13.0352166392
  H         4.1262199560       14.7671329975       14.3486919075
  C         5.6093844542       13.1088578008       14.8568631322
  N         0.3774949975        6.6735469946       13.9648365770
  C        -0.1178890786        7.0725599664       16.2944291164
  C        -0.1507748517        9.2435705521       17.3056334806
  H         0.1446365260       10.9346041920       16.0702884743
  H        -1.4378736727       10.3352230447       -1.2975121098
  H        -1.2122668256        8.6528737078       -1.0293935893
  H         0.1270097032        9.7782171342       -1.4011607047
  S         5.4837968023       14.2855573048       -2.0295073048
  C         5.1908389826       16.8426425060       -2.7122176063
  H        -3.1688342087       12.2518137173       10.1718714799
  H        -3.9622736983       12.8468607019       11.5346159316
  C        -4.6443168574       13.8621212062        9.7937969653
  H         5.4797601006       12.0797871414       14.7460594952
  H         5.2939725115       13.3424187096       15.8779015257
  C         7.1436244448       13.5099969064       14.6963475518
  S         0.4016816617        5.1975665329       14.6861240123
  N        -0.0342186079        5.6537064026       16.2552521534
  C        -0.3415354075        7.7861864264       17.4744838837
  H        -0.3648110347        9.8569157102       18.1842847067
  C         5.8174226060       14.9075287767       -3.7119641443
  N         5.4501399734       16.2069880499       -3.8767936257
  O         4.8978053050       18.0601068432       -2.5569612741
  H        -5.3140628761       14.5947835255       10.3076349726
  H        -4.2151258678       14.3772018306        9.0093314383
  C        -5.6179163370       12.8911643354        9.2281395008
  H         7.6261763060       12.7432573872       15.2694749013
  H         7.3517382312       13.2748869417       13.6446116925
  C         7.5143858873       14.9363459136       15.0642807029
  C        -0.6682547997        7.1017503922       18.7368532179
  S         6.3016155719       13.9042513642       -5.1402477561
  C         5.5327426878       16.9576693770       -5.0828440932
  H        -5.1896520003       12.4378780536        8.3628520491
  H        -5.7701411758       12.1490053338       10.0223071605
  C        -6.9304949232       13.6011207387        8.8671095830
  H         8.2469297315       14.9614821774       15.9201928036
  H         6.6833972951       15.5722514859       15.3812939187
  C         8.0476405627       15.6776991816       13.8209637867
  H        -0.6803879762        6.0011462912       18.6867581379
  C        -1.1557186876        7.5247557271       19.9558002555
  H         5.9812166988       16.4032965901       -5.9125881435
  H         6.1598828823       17.8637682208       -4.9743729033
  C         4.0961894719       17.4930748711       -5.3966869173
  H        -7.1271242355       13.3708449328        7.8399635758
  H        -6.7371542403       14.7033899765        8.8089927061
  C        -8.0437326504       13.3370411464        9.8942159060
  H         9.0007566506       15.2626269151       13.5573032435
  H         7.4767910393       15.4694044276       12.8874356538
  C         8.0550400256       17.2209129686       13.9529651170
  S        -1.5542779898        9.1334669057       20.3508702119
  C        -1.5132948167        6.5293477177       20.9104447195
  H         4.0218958968       18.6068166225       -5.2308834587
  H         3.3957032102       16.8764791573       -4.8109661653
  H         3.9729456310       17.3248574016       -6.4729324424
  H        -8.8438793904       14.0261647241        9.6802274495
  H        -8.4557511034       12.2979762401        9.9804168557
  H        -7.8216121976       13.5694801785       10.8815617177
  H         8.8318799497       17.4644254000       13.2488235290
  H         7.1867566478       17.7530574626       13.5479770040
  H         8.3691515341       17.5523578826       14.9623476596
  C        -2.2713652173        8.3933674626       21.8035300001
  N        -2.2329460843        7.0599617957       21.8928297628
  O        -1.1272809048        5.3680384697       20.9282575381
  S        -3.1012359552        9.2516695954       23.1672311687
  C        -2.3373340030        6.2317528689       23.1208729040
  H        -2.4944618965        5.1624075984       22.8425596600
  H        -3.1028225994        6.4914955610       23.8347519344
  C        -1.0008442810        6.2284462051       23.9012989496
  H        -1.2008774867        6.0586832923       24.9842163064
  H        -0.4923508968        7.2391885427       23.8713374444
  H        -0.2879962615        5.4608623104       23.4902747953
