352
i =
  H        -2.8310214758       15.0875466422       16.5051803466
  C        -2.9326772081       13.9927966411       16.5552734590
  H        -3.9033933008       13.7163467070       16.9089919701
  C        -1.7306046065       13.4987404973       17.3263085861
  C        -2.8018857278       13.4608306892       15.0560407429
  C        -1.7245544643       14.0554433240       18.7482113609
  H        -1.6834457302       12.4061357964       17.3550144045
  H        -0.7765393521       13.8012881446       16.8753749905
  H        -2.2415905946       12.5705856244       15.1495363121
  H        -3.8292945037       13.3147896090       14.6449989659
  H        -2.2394823779       14.2085864640       14.4128117767
  C        -2.2934042108       13.0994316577       19.7605611024
  H        -2.3373989804       15.0011786524       18.8442168114
  H        -0.6672840066       14.2939600432       19.0666043873
  C        -2.2606664418       13.6836462757       21.1383887738
  H        -3.3220805229       12.8833141148       19.3951226752
  H        -1.6988203950       12.2503536448       19.7690647997
  C        -1.1682521933       12.9977460306       22.0318010861
  H        -3.2727200733       13.4268256654       21.5079949704
  H        -2.1958681611       14.7790930719       21.0868246368
  C         0.1491266118       13.7882906133       22.2278187013
  H        -1.5818260831       12.7593537089       22.9899925877
  H        -0.8658364686       12.0196166907       21.6412003564
  C         1.3492872563       13.1338152905       23.0028230430
  H         0.4413021237       14.0146372131       21.2078162795
  H        -0.0596848689       14.6642772351       22.8248731810
  C         1.7450799291       11.7854696622       22.3705119890
  C         0.8544420445       12.3997582255       24.2518479908
  C         2.6429390426       13.9741604780       23.1345212107
  C         1.4886046103       10.7209369056       23.2314913688
  C         2.1817103419       11.3689049974       21.1002228130
  C         0.9269801783       11.0719304232       24.3865780564
  C         0.4690239251       13.0709059549       25.4908213811
  H         2.8939447134       14.1667748136       22.0777242378
  H         2.3972042555       14.9038849540       23.5572948377
  C         3.8531910985       13.2616202377       23.7932801599
  S         2.1067689838        9.2788290855       22.6155355840
  C         2.4514797970       10.0245555820       21.0490887942
  H         2.3103483755       12.1211243533       20.3055273210
  C         0.5588965927       10.4373969006       25.5509497314
  H         0.5213329696       14.1114897650       25.4987771660
  C         0.0298958929       12.4162678455       26.6302757900
  H         4.2484279281       12.5467926153       23.0834942284
  H         3.7526325877       12.5959143386       24.6910411233
  C         5.0117556973       14.1803259393       24.2563710271
  C         2.8886785484        9.2882263250       19.8030655361
  C         0.0788919318       11.0900642333       26.7177321741
  H         0.6014225528        9.3735944992       25.6238732775
  C        -0.2793701409       12.8867478050       27.8946537446
  H         5.8003364336       13.6868138988       24.8711173426
  H         4.6528478583       15.0335669088       24.8927999441
  C         5.6422348632       14.8523150428       23.0119775490
  C         2.8929165783        7.8905300467       19.7467926677
  C         3.2436990418       10.0690512652       18.5468294004
  C        -0.2784800980       10.5324003333       28.0531386236
  C        -0.5362577549       11.8865320376       28.7355034270
  S        -0.5735130272       14.4246715473       28.6210998760
  H         6.2731278539       15.6962627390       23.2949062943
  H         4.8589418007       15.1929688483       22.3389808901
  C         6.4758568993       13.8406684512       22.1312257466
  N         2.8725173219        6.9468084327       20.7392060425
  C         3.0587365386        7.3405278521       18.4928387729
  C         3.6214366985        9.4134659115       17.4044818119
  H         3.4031855836       11.0748501968       18.6594135494
  C         0.8288444824        9.7226174975       28.7407191778
  C        -1.5748332205        9.7202108254       27.8660349536
  C        -1.0165827095       12.2691367939       29.9630317644
  C        -1.0178868047       13.6067139628       30.0731679744
  H         7.5516990567       14.0939040504       22.2597957233
  H         6.3541009567       12.8403196024       22.4679651404
  C         5.9927802015       13.8309897544       20.6717124581
  S         2.7888659693        5.4224807121       20.1701892185
  N         2.9720333337        5.9310381988       18.5860018417
  C         3.2220552237        8.0089759017       17.2303491688
  H         4.1319186527        9.9626598577       16.6449589067
  H         1.1467608582        9.0237386705       27.9740815579
  H         0.3812498216        9.1649015046       29.6103813998
  C         2.0765701312       10.5498608574       29.1407579233
  H        -1.3249097388        8.8994283093       27.0920110185
  H        -1.7840376236        9.1508205225       28.7692698535
  C        -2.7599810269       10.4813957862       27.4755040590
  H        -1.1871006069       11.4855388867       30.6703210932
  C        -1.3113490650       14.3785880493       31.3643394830
  H         5.8776621538       14.8976786117       20.2856516383
  H         5.0674069942       13.3396010671       20.5974712962
  C         6.9797484059       13.1048706710       19.7608406256
  C         3.3276567847        7.3453835391       16.0024120351
  H         2.3751562136       11.3256875708       28.3917360800
  H         1.8541351499       11.2215651553       30.0213516947
  C         3.2119276309        9.7123192618       29.6760630131
  H        -2.5360786477       11.0312501680       26.5487497269
  H        -2.9584470487       11.2483074817       28.2070811564
  C        -3.9489428034        9.5717925055       27.3663137589
  C        -1.3979193217       15.7347464345       31.5127208042
  C        -1.7165820659       13.5405036674       32.5345229493
  H         7.9908965849       13.2461082225       20.1129934902
  H         6.7816862445       12.0675704480       19.7465667631
  C         6.9778104364       13.6631001335       18.3653478906
  H         3.0617835733        6.2525767278       16.0615234818
  C         3.6906444261        7.6622501561       14.7038302638
  H         3.8252230628        9.2354032086       28.9238358373
  H         2.7652835502        8.9054410329       30.2623958087
  C         4.0716296711       10.5837245552       30.5279167340
  H        -3.7265433864        8.9360139848       26.4818374634
  H        -4.0561398384        8.9656672040       28.2577637516
  C        -5.2708935338       10.2828821737       26.9708616006
  N        -1.1904116635       16.6727069053       30.4885768977
  C        -1.6884749729       16.3734677134       32.7516954377
  C        -1.8917513300       14.1479735874       33.7319029505
  H        -1.8499269146       12.4701187582       32.4323809126
  H         6.2574767728       13.2394013692       17.7100204625
  H         6.7405064268       14.7445560145       18.3320374847
  H         7.9526862143       13.5157398465       17.8502278260
  S         3.9959585476        9.2489484808       14.1377403865
  C         3.5970132141        6.6206729048       13.6672250574
  H         4.1115729697       11.6891234441       30.2473647183
  H         3.7031613540       10.4077458149       31.5372312120
  C         5.5418637177        9.9706829487       30.5411480399
  H        -5.2230061890       11.3342426509       26.6285491662
  H        -5.8471736028       10.2335243050       27.9409478787
  C        -6.2203801261        9.5202973500       25.9268064638
  S        -1.3704868334       18.1836682569       31.0816747107
  N        -1.6045696131       17.7198368345       32.6893534451
  C        -1.8663498381       15.6464093378       33.9169286921
  H        -2.1366009071       13.5289357060       34.6115343354
  C         4.1048516766        8.5693917571       12.5067511884
  N         3.9389532647        7.2023098670       12.4736365596
  O         3.4153702133        5.4214018806       13.8381351216
  H         6.1288161478       10.6559696380       31.0941635993
  H         5.9223053845        9.8691362326       29.5451670735
  C         5.4872647622        8.5310814980       31.1896177629
  H        -5.7008257814        9.0454418575       25.1750054035
  H        -6.7674245234        8.7497744703       26.4976836658
  C        -7.2317249958       10.5650421381       25.3512528036
  C        -2.1197216291       16.2574065295       35.1600999482
  S         4.8165957882        9.5173949852       11.1658943389
  C         4.0352542633        6.4109522261       11.2855136678
  H         5.9976764536        8.6884306306       32.0723026479
  H         4.4835069042        8.0564389700       31.4212832006
  C         6.2572175651        7.5412038723       30.3586001401
  H        -6.8967144589       11.1777407285       24.5727865596
  H        -7.6641547918       11.2774020335       26.0895077205
  C        -8.5442848082        9.9094883370       24.7479481657
  H        -1.8424651167       17.3079400618       35.2604236499
  C        -2.7357903148       15.9346128486       36.3612536969
  H         4.7397136849        6.8566958205       10.5772700442
  H         4.3802419596        5.4457399115       11.6040137117
  C         2.6953624055        6.2441143907       10.7399370082
  H         7.0731411095        8.0147420202       29.8509700194
  H         5.6290043668        7.0243650533       29.6203478573
  C         6.9618235896        6.5382529050       31.1984584315
  H        -8.9293554758       10.4888974328       23.9226422050
  H        -8.2570672046        8.9118766420       24.3561337770
  C        -9.6567939097        9.5604097505       25.7596016966
  S        -3.5291751038       14.4395416945       36.7551102740
  C        -2.7776980388       16.9608485686       37.3952721187
  H         2.7735657708        5.7759285007        9.7554012464
  H         2.0635022198        5.7442680499       11.4208565626
  H         2.3128135766        7.2571185363       10.5810392008
  H         6.2170258693        6.1197723232       31.9228002814
  H         7.7327552871        6.9930318795       31.8434144145
  H         7.2412755734        5.7214901698       30.5918925358
  H        -9.9536251191       10.3999603701       26.3821190858
  H        -9.2966673101        8.7310621929       26.3552392406
  H       -10.5919893433        9.1724724318       25.2853829597
  C        -3.9997652179       15.2812964120       38.1916491528
  N        -3.4869486390       16.5140606100       38.4104488645
  O        -2.1838584158       18.0088634883       37.3575218296
  S        -4.8617465576       14.4532280122       39.5244932626
  C        -3.7307772387       17.2426068889       39.6182070021
  H        -3.6417937830       18.2786135838       39.5294606130
  H        -4.7801932131       17.1419908728       39.9617415087
  C        -2.8691007540       16.8916339245       40.8697450734
  H        -2.5379828944       17.7481899592       41.4407878484
  H        -3.4289444043       16.3202345164       41.5833876706
  H        -1.9945605624       16.2971860899       40.5620309931
  H         6.9797791209       10.7060128221        2.8361807000
  C         7.7239540077        9.9184501342        2.9158962434
  H         7.1333673277        9.0346430094        2.9883009197
  C         8.4415345660       10.2785657203        4.2767698120
  C         8.6761350811        9.9913953809        1.7012366268
  C         7.5359996881       10.5231208663        5.5155252726
  H         9.2222677708        9.5404408593        4.4850007105
  H         8.9663079413       11.2071628978        4.0043316897
  H         8.1282296259       10.0693459300        0.7534637232
  H         9.2485231445        9.0793610525        1.6186593431
  H         9.3677686029       10.7998965135        1.7179558170
  C         7.2686080131        9.1652774894        6.1933352079
  H         8.1503106725       11.1841822533        6.2376680086
  H         6.6488295421       11.1342306166        5.2313459040
  C         6.5246845106        9.2748917026        7.6175994526
  H         8.2377857541        8.7038855897        6.3885923118
  H         6.6545998595        8.6197698381        5.4743321841
  C         5.2124753891       10.2164423134        7.6578084365
  H         7.2369088589        9.6196182923        8.3010202225
  H         6.2946288911        8.2835126948        8.0379019092
  C         4.0198295676        9.5104284636        7.1296422954
  H         4.9683083848       10.5375307456        8.6893283622
  H         5.4773867144       11.1151820018        7.1138423570
  C         2.7384875520       10.4313235980        7.1357874912
  H         3.8434293714        8.7168184360        7.9190872068
  H         4.1557925961        9.0907535668        6.0988224851
  C         3.0112775680       11.7559322348        6.4060254950
  C         2.3038099141       11.1919526324        8.4324632466
  C         1.3955375598        9.6531763357        6.5110105000
  C         2.7669510676       12.8515276911        7.2001703655
  C         3.5078447253       12.0940072504        5.0999668961
  C         2.3415154089       12.4989486858        8.4447466230
  C         1.8765330527       10.6156342873        9.6220185008
  H         1.8311339357        9.0880055916        5.6677980952
  H         0.9233619398        9.0227259180        7.3144926328
  C         0.3195494668       10.6008408676        5.9929514974
  S         3.1625801158       14.3590878212        6.3667342227
  C         3.6288795619       13.4363888071        4.8681160593
  H         3.7072091745       11.3552835961        4.3977251504
  C         2.0654969124       13.2179960813        9.5808590540
  H         1.6178288453        9.5826564339        9.6091133819
  C         1.5608898530       11.2983286972       10.7597129875
  H         0.7159644045       11.4564137802        5.4744373576
  H        -0.3008277505       11.0332366498        6.8247281371
  C        -0.7699369823       10.0485887423        5.0642234908
  C         4.0773484108       14.0703232220        3.6278073828
  C         1.6342063668       12.6287557747       10.8066533393
  H         2.1703745350       14.2586005971        9.5163894257
  C         1.1060041553       10.9301370523       12.0184917866
  H        -1.6111930713       10.7804894516        5.1479543883
  H        -1.1422665646        9.1391574877        5.5930919151
  C        -0.2381408219        9.7807404356        3.7427151583
  C         4.1244625408       15.4914264932        3.4539445164
  C         4.4365570231       13.2662412201        2.4845508952
  C         1.2455213560       13.3323137463       12.0603389165
  C         0.9199701313       11.9903668538       12.8112158847
  S         0.8087595606        9.4341174868       12.7853972761
  H         0.0432696125        8.7481981097        3.6148669169
  H         0.6513510544       10.3332872238        3.5443593803
  C        -1.1503058499       10.0989878014        2.5983755322
  N         3.9229918408       16.4972031017        4.4220179350
  C         4.4313109812       16.0207847208        2.1921487502
  C         4.8663514352       13.7918151426        1.2773224788
  H         4.5730059165       12.2186821013        2.6157855712
  C         0.0089683106       14.2024260176       12.0119113228
  C         2.4229976638       14.0959114268       12.6612378290
  C         0.5747769704       11.5554553089       14.1243483658
  C         0.4389880863       10.2247844478       14.2799422156
  H        -2.2159961249        9.9082911757        2.8950419610
  H        -1.0769432322       11.1660522073        2.4599390985
  C        -0.8077509802        9.4126533597        1.2961770778
  S         4.1231720533       17.9506088999        3.6997633375
  N         4.4017874000       17.4180584099        2.2205632036
  C         4.8421505125       15.2750506544        1.0521409480
  H         5.0374239153       13.0565597407        0.4976949020
  H         0.0587047007       15.0057161083       11.2383146074
  H        -0.1271240080       14.6984796580       12.9505886509
  C        -1.2185716988       13.4563470573       11.6913793244
  H         2.7946131091       14.8204816011       11.9162416079
  H         2.0834242259       14.7310263730       13.4811399438
  C         3.5612961783       13.1202632828       13.1423030674
  H         0.3631307946       12.3584925194       14.8235887838
  C         0.1858483066        9.4831413040       15.5846199370
  H        -1.3038787921        8.5209845230        1.1252987230
  H         0.2020407008        9.1496371247        1.2174486975
  C        -1.0562590333       10.4782524144        0.2079483926
  C         5.0568891351       16.0291897436       -0.1355976618
  H        -1.1432359543       12.8352707816       10.7708630067
  H        -1.5083353769       12.8313207665       12.5440131656
  C        -2.4531833025       14.3413475582       11.3599464172
  H         3.8370112487       12.2546048670       12.5219198723
  H         3.2518526165       12.6784245893       14.1160766439
  C         4.7413945416       13.9981286699       13.3686931949
  C         0.1084107752        8.0521210996       15.8127094093
  C         0.1702940164       10.3115007495       16.7875114731
  H        -2.1421230582       10.5649419592        0.1769191951
  H        -0.6783849749       11.4358414992        0.4190118905
  C        -0.6112990255        9.9208064437       -1.2022877691
  H         4.7306377941       17.0646577429       -0.1260462738
  C         5.2828949179       15.6642934293       -1.4514237181
  H        -2.2341635589       15.1003486112       10.5317989432
  H        -2.8259029048       14.9929115871       12.1721309068
  C        -3.5434982279       13.4197649833       10.8586790199
  H         4.9872027543       14.6428654537       12.5965489914
  H         4.5011186575       14.6665818603       14.1738413568
  C         5.9692468007       13.2230223797       13.7348771631
  N         0.2403102177        7.1169340384       14.7596347659
  C        -0.1253544854        7.5533011835       17.0479028357
  C         0.0377385541        9.7805158905       18.0639037780
  H         0.2757489354       11.3886532269       16.7210906758
  H        -0.9461761277       10.4888724178       -2.0289475171
  H        -1.0109469415        8.9047220780       -1.3788623527
  H         0.4192018511        9.7006012253       -1.3517985555
  S         5.6402333131       14.1181129261       -1.9696657914
  C         5.3579581883       16.7300038708       -2.4676062833
  H        -3.3336471694       13.0123513331        9.8353349198
  H        -3.6085167421       12.6453100564       11.5591383460
  C        -4.8774635534       14.1433376444       10.8177560988
  H         6.0668454816       12.4437007401       12.8843169649
  H         5.8299166036       12.6236557687       14.6612436562
  C         7.1682357429       14.2048387876       13.7012552312
  S         0.0243216953        5.6630601432       15.4368231217
  N        -0.2109724621        6.1766611659       16.9698643953
  C        -0.1941865772        8.3125987025       18.2105514156
  H        -0.0337828588       10.3749154521       18.9162949097
  C         5.7711024390       14.8156116773       -3.5507507349
  N         5.6778545207       16.1468328362       -3.6249031780
  O         5.2209548290       17.9238894198       -2.2309345617
  H        -5.5152561293       13.4587376691       11.2840704428
  H        -4.7537840051       15.1115263260       11.2654278886
  C        -5.4600707632       14.2248724997        9.4532638463
  H         8.1877870221       13.7515357810       13.6448163441
  H         7.1704142141       14.8216412664       12.7751150795
  C         7.1362572181       15.2917180014       14.8138036615
  C        -0.5084405732        7.6078831051       19.3560346021
  S         6.4858145973       14.0030326307       -4.9748234354
  C         5.5706657825       16.8594349883       -4.9433155664
  H        -5.0408263115       15.0566580254        8.9406530012
  H        -5.1775546573       13.4283481088        8.7599696452
  C        -6.9912717675       14.2377634049        9.3366426212
  H         7.0913337334       14.7724707407       15.7552211355
  H         6.2529433092       15.8502817027       14.7440266391
  C         8.1190862706       16.4262032002       14.8633261297
  H        -0.1429179301        6.6412034784       19.3724819588
  C        -1.1892109342        7.9844409156       20.5257131426
  H         6.1695103384       16.4300103993       -5.7339966464
  H         5.9794482323       17.8967571746       -4.8154335940
  C         4.2294262997       16.9913460610       -5.4684938026
  H        -7.3133898532       14.2904682084        8.2384188030
  H        -7.2643291645       15.1425115503        9.8385981348
  C        -7.6799863717       13.1178849563       10.0825425278
  H         8.5332056576       16.4648479907       15.8777178334
  H         9.0268223959       16.2135198404       14.2301736695
  C         7.4610342190       17.7063861413       14.5344523445
  S        -1.8816800945        9.5110708903       20.9046486570
  C        -1.2212643319        6.9444760084       21.5751751964
  H         3.5249295552       16.4763130413       -4.7964323664
  H         4.0934083282       16.3947421261       -6.4327760445
  H         3.9233573361       18.0687789443       -5.5779507645
  H        -7.7791326925       13.4407317811       11.1406003604
  H        -8.7334231625       12.9211815021        9.8089364956
  H        -7.0708325835       12.1864239923        9.9159341487
  H         8.2058831760       18.4766377170       14.3747503236
  H         7.0420502246       17.5677997286       13.5766866494
  H         6.6277894141       18.1536280329       15.1538413643
  C        -1.9853135493        8.7683922457       22.5069460907
  N        -1.8126659361        7.4261419392       22.6135178152
  O        -0.6661419553        5.8178053332       21.4557784104
  S        -2.6205699857        9.6680195909       23.9426638024
  C        -1.8942359263        6.6441267968       23.8334597709
  H        -2.1225912336        5.6008265970       23.5928563058
  H        -2.6718230645        6.9962671250       24.4384909085
  C        -0.5470648213        6.8503242577       24.5996433751
  H        -0.5956686144        7.5540749681       25.4829919246
  H         0.2626821688        7.1850988679       23.9176847669
  H        -0.2274954537        5.9316514322       25.0611371405
