352
i =
  H        -3.3680945666       15.2102681530       16.7787293954
  C        -3.0811525767       14.1143140602       16.7988070793
  H        -3.9280188844       13.5066677954       17.1729598698
  C        -2.0147462781       13.7763431674       17.8525927929
  C        -2.5625317105       13.6940632907       15.4215371347
  C        -2.4159204308       14.2740449482       19.2641217150
  H        -1.9232364419       12.6936658726       17.8183276338
  H        -0.9936622035       14.1684728540       17.6854629841
  H        -2.9517168369       12.6673225877       15.1898431379
  H        -2.9046915543       14.2351486225       14.5207191273
  H        -1.4980014136       13.6900223573       15.3419519527
  C        -1.9099494119       13.2243643250       20.2476002874
  H        -3.5106937091       14.4397900436       19.3213641448
  H        -1.8621206874       15.1994331606       19.5394915586
  C        -2.1529798832       13.6181554222       21.6839175842
  H        -2.4033831095       12.1978160941       20.1179391898
  H        -0.8133305254       13.0954701486       20.1241932867
  C        -1.1685260914       12.9926314334       22.5827157632
  H        -3.1205483429       13.2398137734       21.9509470574
  H        -2.1429839510       14.7058277663       21.7177509884
  C        -0.0403877679       13.9632941530       22.8828621919
  H        -1.5759402151       12.7288846851       23.5632856437
  H        -0.9510970385       12.0025739186       22.1171923394
  C         1.1478545663       13.2989612920       23.5466286324
  H         0.3912942541       14.3437358787       21.9122475609
  H        -0.3905036570       14.8942509713       23.5062407513
  C         1.5606595693       12.0280634379       22.8000801278
  C         0.7239580485       12.6099222813       24.8090956502
  C         2.2554151285       14.4159858593       23.7375648718
  C         1.2563598940       10.8832529154       23.6328474348
  C         2.0681969912       11.5597592705       21.5912259646
  C         0.7827825613       11.2843824308       24.8644813883
  C         0.1735666191       13.1733681608       25.9683646765
  H         2.4340729343       14.9641950485       22.8238440230
  H         1.8669151013       15.1284300861       24.5353532210
  C         3.6514029024       13.8161009573       24.2965506557
  S         1.5892217404        9.3632563360       22.8970515721
  C         2.0781067164       10.1958905588       21.4417067989
  H         2.4531990499       12.2956774924       20.9147348458
  C         0.3345368989       10.6614581513       25.9801573633
  H         0.0422572461       14.2155606014       25.9180517554
  C        -0.1061785132       12.5581385845       27.1340161741
  H         3.7102798361       12.9748792836       23.6687408762
  H         3.5499084710       13.5249028288       25.2897122730
  C         4.8662330801       14.6226164981       24.2192373667
  C         2.4846891134        9.3978476306       20.3039607371
  C        -0.1105324921       11.2010879822       27.1518339509
  H         0.5005985933        9.5528748128       25.9274608080
  C        -0.4862037295       12.8905190841       28.3891402583
  H         5.6114266348       14.1591191224       24.8525854486
  H         4.6537080424       15.6648916341       24.4180565544
  C         5.3381818235       14.7044556085       22.7298588488
  C         2.3785040137        8.0568862663       20.1424354407
  C         2.8279535106       10.1833414040       19.0666884724
  C        -0.5037842810       10.4450007031       28.3350883702
  C        -0.8045449655       11.7307867137       29.1094480350
  S        -0.9589458145       14.3158530266       29.1642339707
  H         6.0451993947       15.5277290778       22.6317461863
  H         4.5400569700       14.9098633837       22.0856127543
  C         6.1680816460       13.4542387101       22.2760589997
  N         1.8739231058        7.1149117142       21.0812119132
  C         2.6581517709        7.4371522707       18.9691345520
  C         3.1301780279        9.5532079411       17.8613012020
  H         2.9244490014       11.2603509862       19.2215707107
  C         0.6381442104        9.5659680527       28.8884617857
  C        -1.8024429984        9.6767397880       28.1735306945
  C        -1.3038758531       12.0699905813       30.3915652121
  C        -1.3909747833       13.4431439501       30.5817180682
  H         7.2590405838       13.6765869791       22.4326550291
  H         5.8202134934       12.7123660224       22.9816791466
  C         5.9336502715       13.0026583120       20.8603211191
  S         1.8437349341        5.5961563035       20.4766863690
  N         2.3931667613        6.0515351219       18.9509307647
  C         2.9929142239        8.0681216750       17.7087904991
  H         3.4635747428       10.1666443602       17.0367802015
  H         1.1559838539        8.8950054202       28.1309932953
  H         0.1556272037        8.9908624303       29.6622737553
  C         1.7937536180       10.4009695593       29.6107804226
  H        -1.4702205775        8.7949845337       27.5473480008
  H        -2.1405498355        9.2017272489       29.0397588492
  C        -2.8861866071       10.4933915446       27.4306305455
  H        -1.4576280212       11.2584576799       31.1229823584
  C        -1.7775946188       14.2603823625       31.8173519820
  H         4.9561345443       12.4915142130       20.7368829115
  H         6.7312621871       12.3055350670       20.6759582677
  C         5.9138936917       14.0796064634       19.7256238058
  C         3.2301559845        7.3455371530       16.4878339388
  H         2.0966661293       11.1160319797       28.8223677052
  H         1.3573559307       10.8575772242       30.5065715288
  C         2.8960335780        9.3883433378       30.0477826168
  H        -2.4778070384       10.8448831256       26.4701516180
  H        -3.1828424608       11.2985796220       28.0077339724
  C        -4.1559964436        9.6948275448       27.0657797569
  C        -1.7864701865       15.6581007419       31.9925424288
  C        -1.9346023461       13.4784834011       33.0598999200
  H         4.9063452555       14.5642761579       19.6205078821
  H         6.7145503157       14.7816749898       19.8714208385
  C         6.0316908350       13.4284056926       18.3518648376
  H         3.2017272848        6.2508539590       16.6087436020
  C         3.6431786223        7.7510498780       15.2210911502
  H         3.0808430777        8.8199153452       29.0960213623
  H         2.7195259089        8.5472674156       30.7379426399
  C         4.1182226889       10.0940075705       30.4994838666
  H        -3.9115459305        8.7930101148       26.4301148038
  H        -4.5580997410        9.3258572739       28.0249781525
  C        -5.1435816524       10.5565527352       26.3847071840
  N        -1.4107439040       16.5699420351       30.9925637202
  C        -2.1363176267       16.2612050917       33.1455577976
  C        -2.2986459081       14.0966027921       34.2609999777
  H        -1.6990621324       12.4716917114       33.0813347711
  H         6.7732929087       14.0014401233       17.8399611307
  H         6.3131000771       12.4047944818       18.4173576418
  H         5.1768335999       13.6052355234       17.7713589893
  S         3.9360564706        9.3854596139       14.5874452596
  C         3.7355653655        6.6448526400       14.2293615104
  H         4.2331752314       10.9581464996       29.9597618996
  H         4.1070010393       10.3056948519       31.5887873113
  C         5.3787810678        9.2142505750       30.4974670585
  H        -4.6143648555       11.1814358775       25.7101090467
  H        -5.5566881657       11.2590089649       27.1383535806
  C        -6.3533184334        9.8033096559       25.8376781901
  S        -1.4204586655       18.0308258173       31.6933034200
  N        -2.1209929879       17.6085498388       33.0876441506
  C        -2.5205552961       15.5649963196       34.2876211259
  H        -2.4634301527       13.4376411810       35.1361470728
  C         4.1601601585        8.5924546075       13.0504837966
  N         4.0823901973        7.2275423931       13.0848637329
  O         3.4441732750        5.4169530744       14.4173912263
  H         6.2352376195        9.8358187898       30.5372875946
  H         5.4265792434        8.7239683595       29.5387929537
  C         5.6250584999        8.2943972717       31.6526410024
  H        -5.9875312761        8.9239214058       25.2147176057
  H        -6.7670071980        9.3562430139       26.7038688976
  C        -7.5363261892       10.6432140227       25.2186617650
  C        -2.8347668853       16.2737446258       35.4645993355
  S         4.4984210234        9.4244834761       11.5784914142
  C         3.9747896551        6.4027990526       11.8582313565
  H         5.8085877885        8.9279553213       32.5333638411
  H         4.6826385979        7.7606305362       31.9106057152
  C         6.8306695876        7.4255682415       31.5243738602
  H        -7.0921735372       11.1363557127       24.3920360177
  H        -7.8768323786       11.3925300041       25.9347046023
  C        -8.6756177114        9.7988386670       24.8511528707
  H        -2.6226873257       17.3078739120       35.4873767138
  C        -3.3705995979       15.8642298469       36.6930663625
  H         4.7110342197        6.8369141779       11.2572412969
  H         4.3676441844        5.3714778495       12.0740737891
  C         2.5856485288        6.5444806242       11.1901364469
  H         7.2298421556        7.0968259235       32.4944489682
  H         7.5973410298        8.0855669712       31.1249466773
  C         6.6532685322        6.2226545658       30.6111865892
  H        -9.1323028887       10.2478247685       23.9578237000
  H        -8.1772148618        8.8976429971       24.4405740731
  C        -9.6517372813        9.5295845751       26.0038362067
  S        -4.0686834700       14.2743044440       36.9476077539
  C        -3.4342420893       16.7822371566       37.8475728412
  H         2.6356354258        6.2859201418       10.1979994081
  H         1.8447281718        5.9722981284       11.7390603220
  H         2.2398530544        7.6221522021       11.2263780954
  H         7.6206876003        5.9013079376       30.2440484647
  H         6.0213741575        6.2048307862       29.7056484553
  H         6.3285729741        5.3737414731       31.2203580346
  H        -9.0478293381        8.9898533055       26.7925184438
  H       -10.5582852392        9.0780535642       25.6254606083
  H        -9.9018412383       10.5075602944       26.3963819801
  C        -4.3332899416       14.7693734185       38.6146340774
  N        -4.0573917931       16.0914552960       38.8733338960
  O        -3.0362327342       18.0038926131       37.7950288474
  S        -5.1154144077       13.7854117321       39.8308801535
  C        -4.2274198875       16.5422230022       40.2388081271
  H        -4.3158908279       17.6084478892       40.2622630715
  H        -5.1509449918       16.1530552914       40.6599133457
  C        -3.0339885842       16.2547478021       41.0596948573
  H        -2.3479838972       17.0946984172       41.0056142303
  H        -3.3369158355       16.1410488763       42.0640924858
  H        -2.5260110473       15.3667405506       40.6573976809
  H         7.5730317124       11.1959109408        3.6631024496
  C         8.0124457110       10.1809896572        3.7334849454
  H         7.1496866415        9.4668984807        3.5520895462
  C         8.7665440240       10.0366645926        5.1138782016
  C         8.9135605177       10.0456643095        2.5732554363
  C         8.0031939461       10.4595412612        6.2883835355
  H         9.2693571705        9.0661059886        5.1632997853
  H         9.5466227632       10.7696078160        5.0896324404
  H         9.6138361749       10.8774294469        2.4388568463
  H         8.3727234308        9.9629490394        1.6209832435
  H         9.4804583936        9.1344271668        2.6752251651
  C         7.2596825231        9.3164571849        7.0017118128
  H         8.6858085638       10.7949363372        7.0029003177
  H         7.3635820130       11.3639312406        6.2480935124
  C         6.4035354985        9.7813689409        8.2360266281
  H         7.8008945622        8.4498944758        7.3025719390
  H         6.4377745402        8.9914983001        6.3620659915
  C         5.2280988777       10.7019380198        7.9143841827
  H         6.9939751845       10.3585333343        8.9658006033
  H         5.9838558796        8.9819089696        8.8668544929
  C         4.0761507831        9.9746440290        7.2918838221
  H         4.8445083976       11.0578984477        8.8409544718
  H         5.4958412076       11.5512830812        7.3631579718
  C         2.7460261720       10.7739538017        7.1072981498
  H         3.7629826930        9.0177880964        7.6595018605
  H         4.3073188559        9.7553154281        6.2624046259
  C         3.1053221450       12.0928578413        6.4363795872
  C         2.2770634097       11.5063900743        8.3469632037
  C         1.5786605084       10.1013096060        6.3143957758
  C         2.8938804229       13.2171332132        7.2874991687
  C         3.5688685473       12.5063423799        5.1638241354
  C         2.3392465597       12.8586766165        8.4763682347
  C         1.7816779391       10.8780392175        9.5125293584
  H         1.8858190543        9.5108983774        5.4126107977
  H         1.2291248483        9.3652543935        7.0539666707
  C         0.4154599261       11.0140622657        5.9957564337
  S         3.4033741900       14.6787494578        6.5618866580
  C         3.7200835637       13.8442889878        5.0475524381
  H         3.7028860472       11.7952492538        4.3530116693
  C         1.9802129427       13.5010930797        9.6074835925
  H         1.7358702052        9.7964709330        9.4170884634
  C         1.4183637917       11.5389499228       10.6561931932
  H         0.8908567947       11.9996762869        5.5848158152
  H         0.0424287474       11.3337959419        6.9336711642
  C        -0.7735151289       10.5451192498        5.1806338313
  C         4.2397143648       14.5676771661        3.8376158864
  C         1.5374066163       12.9060089575       10.8095248501
  H         2.1574545984       14.5691255416        9.7705893247
  C         1.0585001696       11.0892165453       11.8883666773
  H        -1.6331796415       11.2065100020        5.2702448217
  H        -1.1603461347        9.6570344456        5.7324241318
  C        -0.4456874806       10.2336959074        3.6668491681
  C         4.0616200795       15.9424480940        3.6028306940
  C         4.7003360332       13.6728186460        2.7308587785
  C         1.2497865264       13.4907355675       12.1444588320
  C         0.9832496096       12.1521799826       12.7725544741
  S         0.8600568234        9.5555578046       12.6464542066
  H         0.1187695021        9.3516486958        3.6475489417
  H         0.2218693732       10.9672737551        3.2818735799
  C        -1.6341891285       10.2114899427        2.7606191750
  N         3.8382553715       16.9003713602        4.5786412378
  C         4.4232460263       16.4846337888        2.4253569242
  C         5.0195353246       14.3029689267        1.5158881690
  H         4.9009885688       12.5886104837        2.8719803801
  C         0.0562514814       14.4423824586       12.0571477362
  C         2.4108703007       14.3453152238       12.6675231957
  C         0.7314811176       11.7411376519       14.1064129780
  C         0.5648722038       10.3469621982       14.1816620219
  H        -2.2976355481        9.4603827595        3.2686459472
  H        -2.0722565209       11.1942848198        2.8413419657
  C        -1.2695428838        9.8206836896        1.3441209061
  S         3.7987530055       18.3024882061        3.8977854654
  N         4.3026098447       17.8801444578        2.4249614854
  C         4.7087420931       15.7859179781        1.2487305581
  H         5.4216736699       13.7126116822        0.7114273714
  H         0.2862526286       15.2721910153       11.4355736488
  H        -0.1163086369       14.7324815435       13.1095963088
  C        -1.2874826274       13.8453282344       11.5582563374
  H         2.6400420876       15.1210408918       11.9429090172
  H         2.1040421521       14.9323649010       13.5255687078
  C         3.6024461029       13.4897202445       13.1342028488
  H         0.7348515178       12.4696855727       14.8580942090
  C         0.3693326216        9.5637662682       15.4221829904
  H        -1.1198593403        8.7746360834        1.3014987478
  H        -0.2863106153       10.1964173766        1.0613667310
  C        -2.2896961513       10.1069993049        0.2307742264
  C         4.9619879841       16.4751282279        0.0095883013
  H        -1.0586810818       13.0086049507       10.8768795940
  H        -1.9741119826       13.3481115320       12.2231614452
  C        -2.1555004585       14.8862230965       10.8931321241
  H         3.9399671890       12.8305967517       12.3819447023
  H         3.1945708205       12.9213703255       13.8742263609
  C         4.7238481238       14.3789845266       13.7321166627
  C         0.1515664367        8.1513461488       15.5264412468
  C         0.1456984128       10.3586055035       16.7079474645
  H        -2.8503356981        9.1387519636        0.0264756324
  H        -3.0976688861       10.7654960073        0.6480240892
  C        -1.7431333790       10.6552326093       -1.0750744005
  H         4.6736355158       17.5031808963       -0.0344750834
  C         5.3917456807       16.0993153454       -1.2626430036
  H        -1.5841528027       15.4212047271       10.1989246021
  H        -2.5658541129       15.6072411142       11.5563604932
  C        -3.2916412771       14.2759575418       10.0722112925
  H         5.1293390473       15.0317633920       12.9844259382
  H         4.4161317629       14.9736061985       14.5938403187
  C         5.8330223010       13.5279139877       14.3947437905
  N         0.0564433163        7.2528060027       14.4321546505
  C        -0.2180777692        7.4925618646       16.7268577681
  C        -0.1578756383        9.7123070672       17.8642618702
  H         0.5376570619       11.3758727879       16.7561151765
  H        -2.6065030410       10.9484109002       -1.7255688533
  H        -1.0595958098       10.0836338301       -1.7625076936
  H        -1.1204346607       11.5631441195       -0.9474511936
  S         5.6895107525       14.5427989248       -1.7731821318
  C         5.4490396069       17.1531460794       -2.2930149348
  H        -3.5749017338       15.0315564236        9.3911942377
  H        -2.9651466591       13.4877576223        9.4772119429
  C        -4.5364054897       13.9543055456       10.8900287337
  H         5.5698508390       12.5269380810       14.2058776823
  H         5.7334629577       13.5044612146       15.4770396726
  C         7.2524558562       13.9220239562       14.1100397374
  S        -0.0001891167        5.7767980471       15.0961294479
  N        -0.2955968789        6.1940331290       16.6258182960
  C        -0.3930498409        8.2135997761       17.9310359326
  H        -0.0947030977       10.1857312779       18.8174468230
  C         5.8681978338       15.3105523554       -3.3626176283
  N         5.8890849884       16.6762393884       -3.4212189219
  O         5.2917582305       18.3794908423       -2.1208642260
  H        -4.2891383734       13.9105495091       11.9119546418
  H        -5.2863994851       14.7259611266       10.7699632372
  C        -5.3790563676       12.7746673515       10.5000211489
  H         7.8658017251       13.2992457843       14.7384282842
  H         7.5222703977       13.7747629100       13.1117750228
  C         7.6945646853       15.4071322341       14.3746375191
  C        -0.7641997618        7.4805811820       19.0719722069
  S         6.5609975892       14.4801807911       -4.7143278140
  C         6.0511524591       17.3911828244       -4.6840600309
  H        -4.7527126128       11.9235282611       10.5640866882
  H        -6.2143487828       12.5842119156       11.1966760936
  C        -5.9420964862       12.9009452898        9.0609121696
  H         7.3503551074       16.0649642586       13.5913821524
  H         8.7246182681       15.6077731068       14.2110132828
  C         7.5126650891       15.9932553722       15.7542695025
  H        -0.5995541467        6.3996597393       19.0367844159
  C        -1.2093800604        7.8388237434       20.2987407853
  H         6.9126690297       17.0407315329       -5.2114170538
  H         6.2565338435       18.4301172888       -4.5605831128
  C         4.8175025649       17.3602190542       -5.4818079351
  H        -6.0990888674       11.8446432283        8.8001710510
  H        -5.2994148231       13.3592041232        8.3252804640
  C        -7.2801087976       13.6706572280        9.0528706526
  H         6.4959006531       15.9150541471       15.9459759401
  H         8.0935412387       15.4275012070       16.4644813891
  C         7.9681948121       17.4163412085       15.9373543019
  S        -1.6045970897        9.4708963169       20.7663791730
  C        -1.6011276249        6.8451671615       21.2520988218
  H         4.1819982570       18.2653516031       -5.2027803929
  H         4.2064048854       16.4923235041       -5.3090231830
  H         5.1429805749       17.3163112320       -6.4894220818
  H        -8.0427088137       12.9462305452        9.3738818578
  H        -7.2949682390       14.5042732184        9.7002000512
  H        -7.5694086123       13.9207379530        8.0427587639
  H         9.0434070082       17.3736013144       15.9453751462
  H         7.6896765905       18.1061812789       15.0701665622
  H         7.7679645824       17.9075887736       16.8456437351
  C        -1.9043324297        8.7707287230       22.3571238180
  N        -2.0647891178        7.4555013986       22.3666309343
  O        -1.4596900093        5.6286459383       21.1443213201
  S        -2.5682878393        9.7335250783       23.6807295946
  C        -2.3384574605        6.5748921470       23.5355684001
  H        -2.7744750083        5.6371654361       23.1922117123
  H        -3.0917478494        6.9688600164       24.2473753472
  C        -1.0665262536        6.2755572776       24.3246098630
  H        -1.1137638876        6.8237286071       25.2881608829
  H        -0.1288787881        6.4428640677       23.6730885320
  H        -0.9845080911        5.1828684773       24.5207332741
