352
i =
  H        -3.9490238692       13.6770164770       16.1925764165
  C        -3.0335492182       13.0850345324       16.4538318878
  H        -3.4479058077       12.2892007675       17.0695540092
  C        -2.0283685502       14.0243320142       17.2392646652
  C        -2.6084303356       12.6546192855       15.0556370519
  C        -2.3139146568       14.0966838575       18.7619126510
  H        -1.0021610483       13.6040350165       16.9934015100
  H        -2.1000904556       15.0896744992       16.8991662663
  H        -1.9438618988       11.7492220209       15.0263293183
  H        -3.5404174756       12.4114220297       14.4148162717
  H        -2.1175147946       13.5340892457       14.5586227517
  C        -1.5471832741       13.0280190038       19.6237496009
  H        -3.3893583350       14.0397315833       18.8482426406
  H        -2.1053480137       15.0724765185       19.1533861674
  C        -1.7994201051       13.1179790626       21.1187106938
  H        -1.7403595289       11.9981439352       19.2393311293
  H        -0.4717894465       13.0426079682       19.3832351067
  C        -0.6312369065       12.5691280882       21.8317738155
  H        -2.7857304003       12.5943856677       21.3066255889
  H        -2.0452742240       14.1069907646       21.4683887395
  C         0.5174828094       13.5247222249       22.1843293518
  H        -0.9694805644       12.1051580189       22.7166243206
  H        -0.2823805378       11.6896565613       21.2473202580
  C         1.6358818140       12.8220666668       23.0418136864
  H         0.9199518445       13.9013377231       21.2566740272
  H         0.2731712729       14.3598109305       22.7588713120
  C         1.9956421045       11.4938561065       22.4084419913
  C         1.2397856440       12.1146997639       24.3335362602
  C         2.8430983729       13.7887114640       23.2854891598
  C         1.7266702641       10.4195819433       23.2482728741
  C         2.6239044167       11.1501200611       21.1925257634
  C         1.2290726447       10.7626754837       24.4313382515
  C         0.7137251602       12.7602880330       25.4793847553
  H         3.0008478628       14.2465688933       22.3183217807
  H         2.4767142891       14.6182456981       23.8301409401
  C         4.0980373254       13.2397426838       23.9451726140
  S         1.9205486479        8.9685256678       22.4864493328
  C         2.6600143081        9.8093207753       21.0925391777
  H         2.8676051583       11.8813067322       20.5176752844
  C         0.7574044891       10.0887802151       25.5552348026
  H         0.5612991018       13.8444543168       25.4261357445
  C         0.2701927460       12.1100660761       26.6366166053
  H         4.6017366769       12.5641797163       23.3229521100
  H         3.6868078377       12.6270163388       24.7834093338
  C         4.9850133176       14.4018383370       24.4349782591
  C         2.8605211213        9.1434382406       19.7899416823
  C         0.2591243079       10.7580708863       26.7368247033
  H         0.7236253797        9.0256013283       25.5296132235
  C        -0.2491145543       12.5361621819       27.8185612474
  H         5.8089389359       13.9549513435       24.9994090423
  H         4.4666618072       15.1593293178       25.0477494761
  C         5.6278439100       15.1474263710       23.1835768762
  C         2.6706786261        7.7595378415       19.5315131453
  C         3.2397010020        9.9244880771       18.6208999439
  C        -0.1874433156       10.0920005276       28.0611938691
  C        -0.5231233357       11.5093298941       28.6668424698
  S        -0.6136418823       14.0624651510       28.4461418240
  H         6.1113488133       15.9991144950       23.6279328076
  H         4.8049998955       15.4788512411       22.5671240657
  C         6.7271093058       14.4840283522       22.4528159657
  N         2.1201016590        6.9164220601       20.4770750881
  C         2.8113746030        7.1755524048       18.2540441384
  C         3.4230706855        9.3246277426       17.3714508498
  H         3.3523125514       10.9667930433       18.6813803727
  C         0.8766204605        9.3909749640       28.8974379504
  C        -1.5038604425        9.2601461255       28.0047966860
  C        -0.8832587912       12.0081534053       29.9715466504
  C        -0.9263211627       13.4099401044       29.9610680718
  H         7.3134193472       15.3418657675       22.0427144052
  H         7.2555696050       13.8181097997       23.1283346516
  C         6.2396780357       13.7070190963       21.1701861430
  S         2.2445294915        5.4248224502       19.8181296116
  N         2.7291027030        5.7839739660       18.3381300795
  C         3.2353330734        7.8856378444       17.0986808339
  H         3.7691510134        9.9012290787       16.5158906922
  H         1.3671283861        8.6574128627       28.3387365006
  H         0.4378172599        9.0848473364       29.8278220150
  C         1.9731942297       10.2973786126       29.4491604332
  H        -1.4153943884        8.3495346791       27.3491868433
  H        -1.6501237816        8.7594958867       28.9804254405
  C        -2.7908695256        9.9942249525       27.6177793675
  H        -0.8753154099       11.3723160562       30.7870884055
  C        -1.1748540213       14.2894593467       31.2066695070
  H         5.5206323806       14.2971206710       20.6316079489
  H         5.6772312341       12.8630071113       21.4672119735
  C         7.3450377981       13.1523526300       20.3221423218
  C         3.2161136083        7.2035246884       15.8429419440
  H         2.2208508753       11.1633124534       28.8470949558
  H         1.7152204579       10.5753520596       30.4863056068
  C         3.2288931875        9.4238027915       29.7044051801
  H        -2.7887529754       10.4078083308       26.6267920680
  H        -2.9750618120       10.7866799471       28.2514362828
  C        -4.0305230829        9.1181620425       27.9671904370
  C        -1.3473217298       15.6864213757       31.2139518433
  C        -1.5311292049       13.6051924315       32.4971120206
  H         8.2815220926       13.4021831185       20.8496049950
  H         7.3611311620       12.0452184375       20.2670413357
  C         7.3380170805       13.6490466048       18.9115576736
  H         3.0619303135        6.1347404440       16.0173576823
  C         3.5591582717        7.6740767988       14.5651621332
  H         3.6249053219        8.9866409952       28.7851124005
  H         2.8348149723        8.6165567622       30.4193472786
  C         4.3341186022       10.2125072379       30.3696665169
  H        -3.9199015461        8.2237841317       27.3966464031
  H        -4.0580070671        8.9320612914       28.9945911166
  C        -5.3259298809        9.8875902672       27.5810700474
  N        -1.2149148299       16.6082343405       30.2034120572
  C        -1.6152138739       16.4098865597       32.4475225835
  C        -1.8127716327       14.3215564530       33.6235256257
  H        -1.4089207172       12.5330609377       32.4888454225
  H         6.3905194840       14.0105437653       18.5237838120
  H         8.1562387233       14.3846401559       18.7137406523
  H         7.8078499056       12.9343626116       18.2060853637
  S         4.0250818686        9.3102062994       14.1189952370
  C         3.6801447122        6.6969282922       13.5060018800
  H         4.3802390673       11.2158753475       29.9961477378
  H         4.1689976779       10.2831885367       31.4535070437
  C         5.6040557277        9.4803820305       30.0648862052
  H        -5.1794330999       10.8866477326       27.2209319668
  H        -5.9068112710       10.1034467313       28.5075692380
  C        -6.1560202584        9.2694327167       26.4887515561
  S        -1.3690993851       18.0991330858       30.7572728564
  N        -1.6736892297       17.7863625829       32.3297750511
  C        -1.8237512341       15.8018930882       33.6929190853
  H        -1.8044345266       13.7635884626       34.5315555454
  C         4.2814766953        8.6548805365       12.5880449700
  N         4.2139374061        7.2960372571       12.4245840461
  O         3.3768495686        5.5291791890       13.5974818252
  H         6.3606365241       10.2723367975       30.1028489529
  H         5.6306359445        8.9654131585       29.0990175053
  C         5.8826086594        8.3618296021       30.9946974093
  H        -5.3337151880        9.0481616223       25.7303049704
  H        -6.6014720404        8.2775133000       26.6923608217
  C        -7.1507965847       10.3585211428       25.9341883305
  C        -2.0737893725       16.6664848455       34.7677204394
  S         4.9956959047        9.6021696384       11.2548313213
  C         4.3443553955        6.6075269657       11.1586349795
  H         6.2524418193        8.8233639798       31.8959081065
  H         4.9909130003        7.7702489836       31.1556277095
  C         6.8993066216        7.3729484782       30.5013467419
  H        -6.6092859126       10.9046738151       25.1537740284
  H        -7.2617443853       11.1546651143       26.7071311386
  C        -8.5526670575        9.9290016301       25.5352907625
  H        -1.7264439675       17.6753683272       34.6214795334
  C        -2.6016769961       16.3952017329       35.9936932477
  H         5.2458445277        6.9788445333       10.7222977031
  H         4.4993259644        5.5277485452       11.4147813201
  C         3.0887973990        6.7664258932       10.2931017190
  H         7.8538736598        7.7522113163       30.7691220376
  H         6.8405534703        7.2645906021       29.4494753715
  C         6.6072717409        5.9973789410       31.1650917878
  H        -8.8277155096       10.3249354366       24.5828230546
  H        -8.7569560025        8.8189344081       25.4764480517
  C        -9.4828963477       10.4059124989       26.6030122366
  S        -2.9815692213       14.8735170203       36.7242069371
  C        -2.8518187236       17.6184189784       36.7902820095
  H         2.6900587433        5.7937741902       10.1471634788
  H         2.3192433359        7.3176655358       10.7814047067
  H         3.2666383976        7.2066110068        9.3074417288
  H         5.5199496557        5.7015966571       31.2502644482
  H         6.9107673460        6.1077983938       32.2040583945
  H         7.0664262903        5.1795970587       30.7308147063
  H        -9.5008023506       11.4728141870       26.6776343242
  H        -9.2605245652        9.9303818970       27.5024222022
  H       -10.5279307091       10.0766142819       26.4071410827
  C        -3.5877471551       15.8724120357       38.0533234781
  N        -3.4631155583       17.2603487871       37.9182140849
  O        -2.6761806563       18.7970401525       36.3630807874
  S        -4.2253427123       15.1915647296       39.5856293802
  C        -3.9122632224       18.2361184231       38.8683963329
  H        -4.3775036604       18.9771366069       38.2761287684
  H        -4.7937713893       17.8705903385       39.4899113840
  C        -2.7883449507       18.5807435272       39.8571576609
  H        -2.7764256768       19.6187236258       40.1602806512
  H        -2.9400628906       17.9920485076       40.7658157975
  H        -1.7629510135       18.3473681325       39.4989433880
  H         7.8716478110       11.0156880810        2.8341380740
  C         8.3096457206       10.0334570351        3.1212933215
  H         7.5114180311        9.3444930304        3.1175205351
  C         9.2335891128        9.9010593151        4.4378908998
  C         9.0709075807        9.5729500035        1.8814516238
  C         8.5153555794       10.2699615478        5.6898405749
  H         9.6267488152        8.9053419833        4.5920434992
  H        10.0330618531       10.6048711990        4.3236838614
  H         9.1611596735       10.4376990295        1.2545392709
  H         8.5281637722        8.7899602016        1.2947112720
  H        10.0113554960        9.1683579913        2.1371259066
  C         7.6332776232        9.1629549517        6.2694800810
  H         9.2228590668       10.5041000553        6.5480546260
  H         7.8524248170       11.0938910621        5.4662623028
  C         6.8906406854        9.5278033500        7.5811900569
  H         8.3118792789        8.3164050704        6.6032207294
  H         6.9298718043        8.7872127218        5.6160321617
  C         5.6568633153       10.3287715901        7.4378862674
  H         7.5831889815        9.9219664206        8.2296248032
  H         6.5313409746        8.6439043329        8.1078847704
  C         4.4213816729        9.4762928456        7.0794400637
  H         5.4000360020       10.7760737370        8.4154972110
  H         5.7848921305       11.1622444516        6.6868009209
  C         3.1265410032       10.3110186531        6.9037521350
  H         4.4010451822        8.7667197422        7.8456870616
  H         4.5053545627        8.8716783376        6.1570619487
  C         3.4273624625       11.7257065775        6.1729838467
  C         2.7377289714       10.9845968160        8.1281871402
  C         1.9359195059        9.5968557622        6.1112874741
  C         3.2297388273       12.7746040428        7.0704076145
  C         3.6878272892       12.1836721308        4.8301564865
  C         2.8036509808       12.3275564410        8.2798377879
  C         2.3459522864       10.3335915849        9.3142599029
  H         2.3409163184        9.1871376518        5.1654795792
  H         1.5852725974        8.8071193674        6.8194472785
  C         0.7086634939       10.4839142597        5.8811963896
  S         3.4827231708       14.3348809337        6.3626428528
  C         3.9273782527       13.5467902529        4.7787678514
  H         3.7907780254       11.4303677909        4.0431319601
  C         2.4846069865       12.9391867068        9.4836645262
  H         2.2583387097        9.2507537092        9.2136244474
  C         2.0078128195       10.9262672281       10.5113177309
  H         0.9274330512       11.5140947927        5.7638807146
  H         0.1442601349       10.3926488094        6.8542861161
  C        -0.3622968229       10.0213950781        4.7911329754
  C         4.4589175521       14.4025770339        3.6377989703
  C         2.0348966350       12.2884557473       10.6201915801
  H         2.5271079578       13.9609612982        9.4468954436
  C         1.4768438521       10.5399771048       11.7573269586
  H        -1.3179773052       10.3872995464        5.1185174705
  H        -0.4336945947        8.9257274298        4.7525935044
  C        -0.0223477192       10.3373381400        3.2735944264
  C         4.4608522746       15.8300602484        3.5172059937
  C         4.8520691031       13.6407346712        2.4087733458
  C         1.5101434280       12.9720423460       11.8984089116
  C         1.2656191908       11.5928193234       12.5886322429
  S         0.9169896346        9.0659626024       12.4500414190
  H         0.8823781595        9.8205380965        2.9188586497
  H         0.1872651797       11.3637330675        3.1762479569
  C        -1.1614939196        9.7752480418        2.4258864328
  N         4.1739954304       16.7028881007        4.5379499482
  C         4.6602128019       16.3960994029        2.3074766008
  C         5.1932370533       14.3241270967        1.2098231457
  H         4.9355622044       12.5720266677        2.3944601799
  C         0.1633162892       13.7282425229       11.7307327762
  C         2.6483550826       13.8537018093       12.3898890332
  C         0.6877111677       11.2408524720       13.8372242788
  C         0.5702178246        9.8752065357       13.9585470950
  H        -1.7548952322        9.0082758780        2.9237889855
  H        -1.8496871390       10.5693980080        2.3093417235
  C        -0.9079545767        9.3700334116        0.9605317058
  S         4.1366789145       18.2091155200        3.9399900896
  N         4.5526112694       17.7479375267        2.4531572583
  C         5.0183300046       15.7676147462        1.1356941694
  H         5.5612767263       13.7374653323        0.3813901138
  H         0.3757845388       14.6591663169       11.1301567395
  H        -0.1751736399       14.1436054853       12.6713277054
  C        -0.9990341729       12.9486933616       11.1281847120
  H         3.4875497822       14.0618138002       11.7187127177
  H         2.2754515622       14.8435870068       12.5879216448
  C         3.3506427290       13.3978429580       13.6845778744
  H         0.4802104011       12.0685752513       14.6010174103
  C         0.2247845655        9.1755327363       15.2295871528
  H        -1.7199791977        8.6941340330        0.6573339214
  H         0.1171722003        8.9850433189        0.8186826172
  C        -1.0738384138       10.4764060231       -0.1773712563
  C         5.1237317090       16.4944820851       -0.0849434195
  H        -0.8538070129       12.8101297077       10.0909652467
  H        -1.1608282907       12.0047792730       11.6305711206
  C        -2.2771902357       13.7091370298       11.1760512979
  H         3.6236756009       12.3459815951       13.5775783234
  H         2.5759600823       13.5167629896       14.4865024758
  C         4.5595445236       14.1727149256       14.0376696273
  C         0.2365984709        7.7362035388       15.3900868687
  C         0.0220592484        9.9270143594       16.4915029071
  H        -2.0383720287       10.9217878865       -0.1454231066
  H        -0.4241551960       11.2465667807       -0.0127759839
  C        -0.9562403794       10.0988207178       -1.5823377123
  H         4.9618403576       17.5912475109       -0.0617671881
  C         5.4830571333       16.0571272833       -1.3690680005
  H        -2.1869463645       14.5073459858       10.4695530394
  H        -2.5892919389       14.1423848042       12.0997268468
  C        -3.4570573409       12.8067778004       10.6849843102
  H         4.7323934304       14.9265229523       13.2782413685
  H         4.3312038367       14.7539547587       14.9593810046
  C         5.8280210429       13.3647329797       14.2459770714
  N         0.4938730585        6.8083537219       14.4305941440
  C        -0.0843636560        7.1586667416       16.5839284078
  C        -0.1325819881        9.3262137633       17.7251028875
  H         0.2167639337       11.0012381774       16.4963374763
  H        -1.1470101121       10.8979140614       -2.2571313023
  H        -1.5710879374        9.1803796598       -1.7515918634
  H         0.0847402559        9.8443708754       -1.6964321212
  S         5.8172502852       14.4769368768       -1.9386596250
  C         5.4844043613       17.0977460622       -2.4474258441
  H        -3.1715618197       12.1975216850        9.8150793929
  H        -3.7386016924       12.1537245064       11.4881785646
  C        -4.6301503321       13.6476648073       10.2259058746
  H         5.9020820710       12.6087953917       13.4508153320
  H         5.7270771799       12.7576826426       15.1167177926
  C         7.0690731341       14.2389379565       14.2143643610
  S         0.2524724699        5.3818489246       15.0766979098
  N        -0.2535184018        5.7959583031       16.5456246150
  C        -0.3029866505        7.8542286728       17.7624851442
  H        -0.1878108605        9.8447134163       18.6106236636
  C         5.9304504220       15.1453347324       -3.5771230337
  N         5.7166512394       16.4868434938       -3.6476026289
  O         5.2784228226       18.3021630753       -2.2612864287
  H        -5.2706955876       13.8767724719       11.0801361983
  H        -4.3244798276       14.6383885284        9.8749527077
  C        -5.4109946626       12.8721879516        9.1868810113
  H         7.9845895608       13.6508411579       14.2628137534
  H         7.1958494295       14.7031343818       13.2616579190
  C         7.2121350776       15.3389907974       15.2571210994
  C        -0.6705371090        7.1139017155       18.9584315693
  S         6.5488442136       14.3374162678       -5.0886096466
  C         5.4988324709       17.2387513540       -4.7807653869
  H        -4.7227563636       12.5901493059        8.3976516549
  H        -5.7090476679       11.9309860864        9.5727583612
  C        -6.5354484589       13.5976490868        8.4362483773
  H         7.4872287961       14.8990588853       16.1617165451
  H         6.2933678367       15.8141851617       15.4015128999
  C         8.3098814590       16.3793604164       14.9319733826
  H        -0.7332949841        6.0460648868       18.8577351352
  C        -1.1581628632        7.4675938730       20.2063719448
  H         6.1124237705       17.0378326778       -5.6337969560
  H         5.7377297541       18.3160625947       -4.5795277989
  C         3.9653615082       17.0316813806       -5.0800697777
  H        -6.8442676258       12.9311555816        7.6411529213
  H        -6.1603847737       14.5973329583        8.1513568946
  C        -7.7466905813       13.7847306460        9.3644630713
  H         8.6739405574       16.9280184052       15.8052035993
  H         9.2121812194       15.8004207498       14.6247910416
  C         7.9565715444       17.3345349845       13.7908494427
  S        -1.6368061487        9.0143077614       20.7882552032
  C        -1.2909677962        6.4130511260       21.1789546281
  H         3.6628329086       15.9922671557       -5.3395778465
  H         3.5523982957       17.6296046249       -5.8755569898
  H         3.4386039754       17.1698880037       -4.1997816346
  H        -8.5431925829       14.4221343106        9.0853961640
  H        -8.1401033183       12.7738743466        9.5805705721
  H        -7.4828159816       14.0919335724       10.3155557754
  H         8.2096733475       18.3873664348       13.9617814575
  H         8.2870519542       16.8138544874       12.9029063215
  H         6.8174982219       17.2282288743       13.6371926340
  C        -2.0346732824        8.2021698225       22.3276065919
  N        -1.8856465574        6.8750296001       22.2821300776
  O        -1.0847693581        5.1710621007       20.9600524763
  S        -2.6371067179        8.9514772097       23.7763360213
  C        -2.0355484483        6.0496048616       23.4810410397
  H        -2.2776071812        5.0038284747       23.1251082729
  H        -2.9225830677        6.3138033154       24.0083860032
  C        -0.7303975399        6.2130381128       24.3831531394
  H        -0.8956577844        6.8115027207       25.3424500830
  H         0.0959058885        6.6124329366       23.8037823967
  H        -0.4390394180        5.2414912165       24.7437049582
