352
i =
  H        -2.9977582378       15.4464345480       16.9221059004
  C        -2.6804395311       14.4725714929       16.9422576820
  H        -3.4601100950       13.9165483777       17.4339406472
  C        -1.3743438932       14.4825823770       17.6905268467
  C        -2.4538024444       13.9719371038       15.5084494200
  C        -1.6726180901       14.4223889021       19.2000296684
  H        -0.7054520255       13.7539376189       17.2879348803
  H        -0.8567602430       15.3749187888       17.5026562961
  H        -2.2358823145       12.9154462736       15.4110939248
  H        -3.3667222282       14.0461809335       14.8475108401
  H        -1.7121000201       14.6712605822       15.0289318802
  C        -1.6677129357       13.1304005827       19.9349141480
  H        -2.6396226177       14.9545878028       19.3076589284
  H        -1.1046265339       15.1998475603       19.6715839785
  C        -2.2845524570       13.3481502601       21.3337382995
  H        -2.2766103858       12.5745350939       19.2834960108
  H        -0.6642429964       12.6490925937       19.9906997695
  C        -1.3711065537       12.8528012380       22.4610358511
  H        -3.2132295931       12.7248632940       21.3572620686
  H        -2.5901636401       14.3871587581       21.5843634558
  C        -0.1302552953       13.7215430472       22.6147480195
  H        -1.9085574142       12.8836656785       23.3941042743
  H        -1.0540980399       11.8411644952       22.2759526946
  C         1.1214210434       13.0015927158       23.3263360896
  H         0.1903450429       14.0570968543       21.6130055471
  H        -0.3488634366       14.5908924418       23.2143835472
  C         1.4794404126       11.6711485527       22.6376063494
  C         0.6617436048       12.3813511178       24.6237475200
  C         2.3390673842       13.9691705014       23.5555572095
  C         1.1766452278       10.6237071971       23.4523119288
  C         2.0520477633       11.2471747442       21.4337028874
  C         0.6581959551       11.0437479859       24.7027355785
  C         0.2745943622       13.0750179795       25.7915593306
  H         2.6137016938       14.3716316424       22.6210262143
  H         2.0493262966       14.7464331304       24.1861065652
  C         3.5409042463       13.2364109775       24.2263675814
  S         1.7861445436        9.0594022964       22.9163720990
  C         2.1929319955        9.8754461211       21.3906811165
  H         2.2139291128       11.9572669706       20.6780775207
  C         0.2907626971       10.4854010193       25.9163649415
  H         0.2500722368       14.1504889159       25.6533939601
  C        -0.1085123318       12.4643711786       26.9722967711
  H         3.6723420419       12.2516292344       23.8969481899
  H         3.3256342895       13.1213826371       25.2694509204
  C         4.8937213529       13.8691795107       24.2083469572
  C         2.5991378556        9.2029026289       20.1482776726
  C        -0.1381208613       11.1232922923       27.1171598382
  H         0.4623493564        9.4530386037       26.0048305792
  C        -0.5411621005       12.7920388558       28.2322462696
  H         5.5745406914       13.4009216502       24.9610537744
  H         4.6489193232       14.8664952612       24.5969584907
  C         5.6168342053       13.9371093021       22.8421612457
  C         2.4666368997        7.8455633738       19.8355625526
  C         3.1513932470        9.9929778562       19.0399019157
  C        -0.6781534127       10.4143733270       28.3064568716
  C        -0.9436050177       11.7464667892       29.0106085826
  S        -0.8113550636       14.4151519903       28.9693632320
  H         6.3088012605       14.7579449057       22.9310843294
  H         4.7565484011       14.2455295866       22.2128773649
  C         6.1339894209       12.5735563040       22.4803433443
  N         2.1867970399        6.8459113416       20.7345679379
  C         2.6405640205        7.2778827020       18.5745982422
  C         3.3744996469        9.4758529036       17.7655973898
  H         3.4649496158       10.9930979617       19.3380812508
  C         0.4095749789        9.5562208823       28.9540692549
  C        -1.9615624085        9.7694261307       28.1694986437
  C        -1.5044223615       12.1796373670       30.2108059371
  C        -1.3825248505       13.5522850286       30.3816832523
  H         7.1876797450       12.4717313258       22.8057919108
  H         5.5216086836       11.8146738721       22.8559524181
  C         6.0821052494       12.3937292008       20.9963088145
  S         2.0538281562        5.4421091531       19.9975256320
  N         2.6021297142        5.8553772809       18.5520068776
  C         3.0613823013        8.0460431366       17.4702663804
  H         3.6536570787       10.1859061267       16.9633079429
  H         0.6925678436        8.7289096892       28.2846038290
  H         0.0010622282        8.9175521395       29.7467200058
  C         1.7260768755       10.2515465196       29.4398763896
  H        -1.8102912595        8.9943073370       27.4651837646
  H        -2.2977302868        9.2976877887       29.0989599943
  C        -3.1379168110       10.6180306929       27.6380162592
  H        -1.7166664138       11.4051668477       31.0015948608
  C        -1.6876103302       14.2877279332       31.6641001709
  H         5.1354919792       12.2140615117       20.6090352919
  H         6.6555087388       11.4805441977       20.8813460569
  C         6.7962247264       13.4981573588       20.2809230906
  C         3.1836617879        7.3956292074       16.1778136016
  H         2.3183547464       10.6747460662       28.7156714338
  H         1.3884652006       11.0814345393       30.0131850455
  C         2.5735428295        9.3365320931       30.3360668940
  H        -2.8717944996       11.1865000066       26.7699941383
  H        -3.2258803323       11.4032512904       28.3985818340
  C        -4.3593022569        9.7538919791       27.3867523105
  C        -1.5477824564       15.6873369880       31.8446242017
  C        -2.0515288933       13.5365750100       32.8905140940
  H         6.0279483534       14.2404134684       20.0886576814
  H         7.5358722165       13.9576382749       21.0160545000
  C         7.6029091758       13.2184354637       18.9994063947
  H         2.9930647863        6.2888400687       16.1443018107
  C         3.5469695702        7.8476985240       14.9797184443
  H         2.6917820137        8.3700673054       29.7852783132
  H         2.0950178802        9.0121375906       31.2647902074
  C         4.0018602948        9.8390965724       30.5350942240
  H        -4.1433064419        8.8134691821       26.8397724162
  H        -4.7846581386        9.5377704337       28.3485527554
  C        -5.3763814485       10.6278891889       26.5975622555
  N        -1.2767703828       16.6001391003       30.8724713101
  C        -1.9925101882       16.3379654110       32.9751293334
  C        -2.1898577908       14.1919668429       34.0868093684
  H        -2.0323134703       12.4913940867       32.9395801687
  H         7.6897556787       14.1430995758       18.3855618084
  H         8.6467968333       12.9947633695       19.2797324790
  H         7.0655511074       12.4803036729       18.3682090098
  S         4.1192401207        9.3571603066       14.4525770056
  C         3.5781195794        6.8406087163       13.8277720812
  H         4.1902721168       10.6625375471       29.7855130254
  H         4.2429364695       10.1526104237       31.5494352712
  C         5.1337730947        8.8154795577       30.1292535356
  H        -4.9150976038       10.9946667608       25.6759896978
  H        -5.6022225770       11.3931596045       27.2466609056
  C        -6.6308294837        9.8556641801       26.0807726360
  S        -1.4933662106       18.0935458013       31.4190358189
  N        -1.8708114015       17.7211277635       32.9671756866
  C        -2.2494711898       15.6511742190       34.2380043930
  H        -2.4730693684       13.5711868467       34.8742374039
  C         4.2348864691        8.7219808647       12.8113918814
  N         4.0910829010        7.4023412564       12.6625224040
  O         3.2243610505        5.6852476524       13.9024227788
  H         6.0987565530        9.3956159180       30.0096112958
  H         4.9990391696        8.3603342743       29.1343081500
  C         5.3455126521        7.7091290783       31.1671776898
  H        -6.2815048884        9.3637833894       25.2841263898
  H        -7.0499302523        9.1869877265       26.7551258257
  C        -7.7231021677       10.7629575300       25.5244536764
  C        -2.5304095404       16.4404213949       35.4292060817
  S         4.4573799237        9.7099106759       11.4158414614
  C         3.9930995149        6.6939546632       11.3513955909
  H         6.0196365526        7.9874088519       32.0122115693
  H         4.3667839393        7.5389685098       31.6782107442
  C         5.8213405721        6.3388723473       30.5993707979
  H        -7.2066044912       11.4862383094       24.8326384208
  H        -8.2190134127       11.2420784663       26.3992300677
  C        -8.8103560998       10.0583286834       24.7602404346
  H        -2.3349921512       17.5137427895       35.3643093587
  C        -3.1692728380       16.1434999699       36.5909654633
  H         4.6698473156        7.0507794279       10.5889612642
  H         4.1939464653        5.6955737119       11.4027982848
  C         2.6093528931        6.9662597266       10.8059948973
  H         6.7733238342        6.5449605538       30.0853378619
  H         5.0805351066        5.9750666653       29.8719397447
  C         5.8566964329        5.2874873523       31.6383216781
  H        -9.0894578003       10.6852918178       23.9207399406
  H        -8.4983440374        9.1880176473       24.2427994251
  C       -10.0873201856        9.8317828841       25.5966725049
  S        -3.8938709161       14.6749411265       37.1155346889
  C        -3.1371917575       17.1550316780       37.6547073023
  H         2.5679367472        6.7146277141        9.6956445326
  H         1.8420536444        6.3576936721       11.2902545194
  H         2.2007174715        7.9172390734       10.9325622561
  H         6.5413965931        4.5572203947       31.2207086216
  H         4.9479200136        4.6580905796       31.5251571848
  H         6.1354507473        5.5653788423       32.6748961242
  H        -9.6451409044        9.3640060116       26.4669095287
  H       -10.8138237101        9.1530463668       25.1328701518
  H       -10.5956223309       10.7566216904       25.9108785359
  C        -4.1865511762       15.4221185736       38.6613788566
  N        -3.8737903058       16.6835586000       38.7438974662
  O        -2.6069294748       18.2566745306       37.6493331404
  S        -4.6912979763       14.4289714966       40.0464188262
  C        -3.8454408002       17.4326507445       39.9468631755
  H        -3.8628699818       18.5041021577       39.6479358236
  H        -4.7476815067       17.2826385677       40.5240885463
  C        -2.6132050774       17.0400985608       40.7186759224
  H        -2.8402508586       16.1529480867       41.3217456471
  H        -1.7741825888       16.7820041225       40.0607871082
  H        -2.1900845950       17.8286573443       41.3026201718
  H         7.3682170203       11.3579484788        3.5123429034
  C         7.9652421245       10.4612761989        3.4821878266
  H         7.2843939656        9.6638467370        3.4164361461
  C         8.8180606030       10.4876010617        4.7685599665
  C         8.8462658386       10.5098967586        2.1975897161
  C         8.0059461790       10.7823323519        6.0300342536
  H         9.2607285099        9.5347022927        4.8742026280
  H         9.6599285235       11.1550337322        4.5969525533
  H         9.4964566722       11.4082675810        2.1153190671
  H         8.2833431735       10.3322910818        1.2677696536
  H         9.5835228654        9.7253280857        2.3402092578
  C         7.3178170181        9.5110570769        6.6630480620
  H         8.8125326447       11.1062348199        6.6456367824
  H         7.3410178669       11.5012650824        5.8882220615
  C         6.5444675718        9.6776878147        7.9708643452
  H         8.0968280397        8.8071098164        6.9318892304
  H         6.7208115952        8.9602599891        5.9887081369
  C         5.2892446858       10.4608339040        7.9376841905
  H         7.2471385930       10.2131777570        8.6141672279
  H         6.3900965504        8.6899454222        8.3570215730
  C         4.0519844311        9.7553684220        7.3473433533
  H         5.0908205355       10.8882922694        8.9116050831
  H         5.4851787920       11.4147896146        7.3550635595
  C         2.8151237923       10.7571057402        7.1707553200
  H         3.7488789602        8.7859165921        7.7846354391
  H         4.3636273851        9.4575186931        6.3558119688
  C         3.0894779433       12.1532289969        6.4929990384
  C         2.4969475015       11.4364055994        8.5321204699
  C         1.6186217060       10.1352145506        6.5033359121
  C         3.0161058997       13.1950414424        7.4014714555
  C         3.4252255524       12.5062189136        5.2047300946
  C         2.6051222556       12.7824276286        8.6465479893
  C         1.9674037057       10.8432638745        9.6537920032
  H         1.9037495610        9.7377791263        5.5300515145
  H         1.3053988429        9.3271270218        7.1370661021
  C         0.4047954257       11.0277113990        6.2772471676
  S         3.3684797778       14.6805270723        6.6472744677
  C         3.7198887893       13.8477692409        5.2163886564
  H         3.4726723884       11.7733338867        4.4526882287
  C         2.2893177372       13.4705417224        9.7308762148
  H         1.8512611206        9.7983895092        9.6741557819
  C         1.5911281414       11.5247929885       10.7688832841
  H         0.7979700790       11.8998147544        5.8462704176
  H         0.0326211151       11.3976159818        7.2437758675
  C        -0.5876756550       10.3753360267        5.3478066863
  C         4.0870582391       14.6577272403        3.9834876509
  C         1.7768707932       12.8696613938       10.8657437674
  H         2.5032713351       14.5377461557        9.7882904917
  C         1.1642783058       11.2225458492       12.0715462519
  H        -1.6057208160       10.5947224729        5.7568711575
  H        -0.4669737103        9.3162478639        5.3803102814
  C        -0.4719284403       10.9467743108        3.8655172157
  C         4.2078025090       16.1050035837        3.8533463110
  C         4.4886800785       13.9130961327        2.8167438991
  C         1.4068957415       13.6102965434       12.1395228570
  C         1.0307369046       12.3117945327       12.8613564411
  S         0.8977160637        9.6864280904       12.9022829118
  H         0.5071461271       11.4642484373        3.6416115362
  H        -1.3096500928       11.5809264325        3.6361838270
  C        -0.4970777276        9.8356703078        2.8353365873
  N         3.7827868078       16.9396653802        4.8111839656
  C         4.4384843349       16.7291392992        2.6172317740
  C         4.7338395919       14.5202193868        1.5997769366
  H         4.5714445335       12.9042312506        2.8497521351
  C         0.1549941852       14.5200550497       11.9917301184
  C         2.6074552064       14.3365250337       12.7620696214
  C         0.6734571871       11.9213178362       14.1928503788
  C         0.6167849355       10.5513236215       14.3654545984
  H         0.1877062673        9.0305854869        3.0791180224
  H        -1.5940726682        9.4531939112        2.8572345170
  C         0.0164099682       10.1945621496        1.4647846310
  S         3.9965195245       18.4652114756        4.2739269133
  N         4.4749596236       18.0849573086        2.7354808021
  C         4.7299471971       16.0025591776        1.3980626524
  H         5.0283107700       13.9152887366        0.7424001899
  H         0.4030529954       15.3906042772       11.2785413014
  H        -0.1942537502       14.8401921802       12.9782117569
  C        -1.1070912948       13.8246475121       11.3259322612
  H         2.8199495360       15.2381535713       12.2605907774
  H         2.4862163306       14.7688549972       13.7773821802
  C         3.8590200923       13.3602281768       12.8082603364
  H         0.6107903989       12.6672528922       14.9409337966
  C         0.2124851418        9.8755099141       15.6130462699
  H         0.7993009808        9.3991737313        1.1505302010
  H         0.4025371996       11.2066414351        1.4167044367
  C        -1.1346188910       10.0546513414        0.4376043383
  C         5.0301930913       16.7537774175        0.2242134330
  H        -0.8475207365       13.2266000397       10.4097263877
  H        -1.4673644501       13.0620362371       12.0801554334
  C        -2.2515480399       14.7783637553       10.9956514124
  H         4.2177066479       13.0359724491       11.8517064101
  H         3.7832094872       12.3954284110       13.3265574522
  C         5.0623259035       14.1059233757       13.4221890958
  C         0.1299357659        8.4357724916       15.7725090914
  C         0.0377597764       10.6075259833       16.8671318943
  H        -1.4764678125        9.0000080656        0.6023489950
  H        -1.9168226383       10.6838431961        0.9509689731
  C        -0.7667098649       10.4871685724       -0.9554062991
  H         5.0176097639       17.7798578365        0.3754933639
  C         5.4776094283       16.3485426777       -0.9760020646
  H        -2.1087986708       15.5609740626       10.2234510920
  H        -2.6494524265       15.3543084077       11.8533134184
  C        -3.4146181295       14.0913757042       10.2161324740
  H         5.3983670573       14.9785333600       12.8025032204
  H         4.6436401928       14.4453292893       14.3839243910
  C         6.3440649193       13.2223567030       13.8101040740
  N         0.2629509957        7.5504856125       14.7145437265
  C        -0.1652235561        7.7939997340       16.9237897220
  C        -0.3213942354       10.0314681064       18.0851027432
  H         0.1059723534       11.6844525956       16.8185832192
  H        -0.7263489488       11.6030167574       -1.0146463687
  H        -1.6068378971       10.1984327147       -1.5988760878
  H         0.1802343106        9.9937623338       -1.4974780608
  S         5.7302512834       14.7334040305       -1.5122119655
  C         5.5587869408       17.3737952048       -2.0386422556
  H        -3.7405231467       14.8546682521        9.5434783478
  H        -3.1146925283       13.2539077281        9.6180729972
  C        -4.5672898317       13.6966168728       11.1988974365
  H         6.9145763080       13.1222191658       12.8900801621
  H         6.0941887404       12.1998619315       14.0139367691
  C         7.2535019283       13.8513050863       14.8735081068
  S         0.1974182990        5.9838445098       15.3345866863
  N        -0.3126218123        6.3930109940       16.8487152682
  C        -0.4536135052        8.5330252308       18.1015656761
  H        -0.4455331109       10.6116589978       18.9880274701
  C         5.8583224715       15.4235023523       -3.1203845042
  N         5.8115272657       16.7497144720       -3.2459061726
  O         5.4444106167       18.5779776949       -1.8629642699
  H        -4.1638840311       12.9336903393       11.8211322312
  H        -4.7299950451       14.6051145808       11.7021175858
  C        -5.8001238992       13.1910836798       10.4474688630
  H         6.5613194793       14.2295430971       15.6442841854
  H         7.9549549160       13.0882445079       15.3093249475
  C         8.0699457660       14.9733566320       14.3142457695
  C        -0.5914503062        7.7566163798       19.3247593993
  S         6.4048338813       14.5077019939       -4.5353922464
  C         5.7042177194       17.4362504498       -4.5086696660
  H        -5.5120365886       12.8036697254        9.4422904923
  H        -6.2889979877       12.3757262093       10.9604423723
  C        -6.8191923212       14.3231634586       10.2793797904
  H         7.7466067507       15.2232459211       13.2548730210
  H         9.1067240624       14.5964944706       14.1329619722
  C         8.0942932789       16.2901690595       15.1432723758
  H        -0.1790510657        6.7829927099       19.2267400083
  C        -1.2492351334        8.0151244257       20.5596433672
  H         6.5017765036       17.0860507400       -5.2281927446
  H         5.8953723811       18.4906637297       -4.4242387372
  C         4.2319946191       17.3574338581       -5.0879499263
  H        -6.4365953846       15.3489049342        9.9935831145
  H        -7.2535281213       14.5059563173       11.2544629595
  C        -7.8086467467       13.9500661164        9.2407320037
  H         7.2769286316       16.3659707807       15.8469107248
  H         8.9967222096       16.2128903736       15.7553551909
  C         8.1404664898       17.4791916536       14.2431818795
  S        -1.9684679855        9.4652555709       21.1590569222
  C        -1.2616068058        6.9212616928       21.4718150145
  H         3.9523338276       16.4524009965       -5.5555246610
  H         4.1149391083       18.2912783652       -5.7023459624
  H         3.5603971560       17.5703752637       -4.2366054831
  H        -8.3716952217       13.0403592423        9.5721171867
  H        -8.4996402641       14.6619128699        8.8852075987
  H        -7.3576470224       13.5102682201        8.3701437669
  H         8.8581297028       17.4374724015       13.4132316048
  H         7.1725709456       17.5953057390       13.9476001886
  H         8.4099128415       18.3229033453       14.8689915783
  C        -2.3344480763        8.5045262676       22.6267947788
  N        -2.0050403254        7.2293664739       22.5907412185
  O        -0.8412569758        5.8134005797       21.1514175974
  S        -3.1460005951        9.1468550139       23.9646941593
  C        -2.1041987562        6.3591679682       23.7791170840
  H        -2.3658556039        5.3375733798       23.5022847609
  H        -2.9717190096        6.6193831169       24.3580884072
  C        -0.8612368249        6.3111714300       24.6698274036
  H        -0.3041199621        5.3905675202       24.5391450392
  H        -1.0342957268        6.4364557553       25.7452359466
  H        -0.0806998510        7.0733886504       24.3907442000
