352
i =
  H        -3.5785987656       14.4853871024       15.9299899074
  C        -3.2759874232       13.5391279724       16.3527385622
  H        -4.1826539753       13.0986709984       16.8191018056
  C        -2.1453954496       13.6681307335       17.3699386290
  C        -2.9887091196       12.5873144404       15.1187487159
  C        -2.6901044082       13.4606565063       18.7884196385
  H        -1.5722879774       12.7728675081       17.1853473459
  H        -1.4181529151       14.5202666665       17.2765787954
  H        -2.2646468762       11.7173562811       15.1697098815
  H        -3.8685142746       12.1182403059       14.8376669325
  H        -2.7486404967       13.1838590026       14.1981875316
  C        -1.7813547737       13.9318019350       19.9426846326
  H        -2.9001157091       12.3763062779       18.9679573690
  H        -3.6533348859       14.0741534871       18.8410204311
  C        -2.3775712731       13.6129220688       21.2714234747
  H        -0.8186880914       13.4131940877       19.8359048165
  H        -1.6385323604       15.0364242740       19.8652037261
  C        -1.3879466226       12.7872153654       22.1444775256
  H        -3.2517664337       13.0226375530       21.1607313510
  H        -2.6467416946       14.5722885121       21.7171868504
  C        -0.1857824819       13.6612463729       22.6297058885
  H        -1.9088940630       12.4082353428       23.0252842042
  H        -1.0507736185       11.8914789259       21.7620971305
  C         1.0065297549       12.9413829028       23.2187265462
  H         0.2763059882       14.1995264458       21.8166379110
  H        -0.6015039972       14.4510641536       23.2564311545
  C         1.4226200563       11.5470222457       22.5399292759
  C         0.6879619292       12.1323101642       24.4705847728
  C         2.2448092615       13.8990074606       23.3448524758
  C         1.3254566914       10.4817147504       23.3427094001
  C         1.8948629642       11.1219460018       21.2395940829
  C         0.8291511010       10.8008684820       24.6023474021
  C         0.2825419040       12.7833343323       25.6820363969
  H         2.3740054707       14.4180064446       22.4134363277
  H         2.0310847749       14.5542986901       24.2307566461
  C         3.5554928772       13.1654033325       23.6473307707
  S         1.7630362465        8.9541754443       22.6286724730
  C         2.0514482241        9.7489296178       21.1551955846
  H         1.8928965667       11.8241537288       20.4035142247
  C         0.4165957528       10.1417841777       25.7441532222
  H         0.2124023397       13.8520883529       25.6961000508
  C        -0.0926736768       12.1948410430       26.8819582291
  H         3.8251011094       12.6341110576       22.7283575284
  H         3.4128886266       12.4297330571       24.4244655208
  C         4.7491810595       14.0311757459       24.1161990725
  C         2.6322529738        8.9878681304       20.0067987648
  C         0.0250270574       10.8287639638       26.9652120003
  H         0.5637544408        9.0710873011       25.6629289147
  C        -0.5280229960       12.6475441184       28.1421868605
  H         5.4475047779       13.4808241684       24.6970566945
  H         4.4632931417       14.6925720469       24.8753190586
  C         5.4744347367       14.6908756611       22.9385350204
  C         2.5563399576        7.6018621030       19.8186377257
  C         3.0657318193        9.7245035075       18.8588812013
  C        -0.4636555570       10.2487160433       28.2723060875
  C        -0.7687743385       11.6164081273       28.9876094972
  S        -0.6807151757       14.1810315313       28.8689395488
  H         6.2715099198       15.3929300716       23.1992583825
  H         4.7139545502       15.3094009056       22.4429020675
  C         6.0687325575       13.7324740954       21.8989585085
  N         2.1343951301        6.6358662005       20.7807696958
  C         2.7158524605        7.0294729443       18.5206729558
  C         3.3019279024        9.1160657271       17.6475931605
  H         3.2695371190       10.8395575725       18.9262258834
  C         0.5321279455        9.4204956471       28.9791599580
  C        -1.8220396801        9.4567391431       28.0981598927
  C        -1.0471863863       12.0764111826       30.3057975543
  C        -1.0552719319       13.4591495111       30.3318258159
  H         6.8516051999       14.4098439655       21.5441229669
  H         6.5153164173       12.8307804944       22.2843002923
  C         5.2481847722       13.4283163570       20.6066232628
  S         1.9497236055        5.2071992480       20.0226285952
  N         2.4575038611        5.6447464729       18.5308056380
  C         3.1841792456        7.6402597173       17.3918284732
  H         3.5853074860        9.6587645090       16.8199690259
  H         0.8551115075        8.6441658787       28.3607363771
  H         0.0371250782        8.9951785379       29.8030272786
  C         1.8167538717       10.2239656729       29.2423750815
  H        -1.6880563967        8.5912979250       27.6382213995
  H        -2.1757589565        9.2322928544       29.1110656760
  C        -2.9255711406       10.2311831979       27.3487844661
  H        -1.3373979889       11.4049517252       31.0596503854
  C        -1.3771946508       14.3054326286       31.5665281496
  H         4.3931152359       14.0290209237       20.4728439475
  H         4.7785889843       12.4754869558       20.6667983265
  C         6.1088545967       13.3905233837       19.3591827545
  C         3.3248255955        6.9232139041       16.1232808777
  H         2.0668348814       10.6584854835       28.3070127197
  H         1.7293360849       11.0400335599       29.8620417046
  C         2.9627885205        9.3346388492       29.7337113792
  H        -2.5641949489       10.3850385359       26.2933542476
  H        -3.0529640567       11.2101001047       27.7272656750
  C        -4.2417685261        9.5404114525       27.4692915343
  C        -1.5145823727       15.6983607134       31.6694582333
  C        -1.6741533565       13.6414551526       32.8246208273
  H         5.6330523162       12.6899261069       18.6693932123
  H         6.0343876188       14.4147719780       19.0343717424
  C         7.6125268458       13.0095861106       19.5124471787
  H         3.2418366936        5.8640353428       16.2409099364
  C         3.6512771023        7.3523854441       14.8304872346
  H         3.4815218763        8.8164248273       28.8869474442
  H         2.5232169894        8.4267092236       30.3134431245
  C         3.9066832686       10.0978003188       30.5409400178
  H        -4.2819583431        8.5748302570       27.0142733102
  H        -4.5480659792        9.3726233346       28.4949066078
  C        -5.3028583123       10.4201441129       26.6947209361
  N        -1.3030381485       16.6097864834       30.6408131487
  C        -1.7370509575       16.3626513697       32.8945996559
  C        -1.9934541506       14.2190205867       34.0086129090
  H        -1.7125749836       12.5753509208       32.8020560838
  H         7.9939743887       12.5830012939       18.5808055814
  H         8.1337416612       13.9384317076       19.7631847897
  H         7.6642259338       12.1771527020       20.2528520988
  S         3.9779875397        8.9488101560       14.4764439541
  C         3.7429541297        6.4349711397       13.7124171865
  H         3.8693883625       11.1496523631       30.2104759562
  H         3.6171999708       10.1423626859       31.5916855392
  C         5.3883271954        9.5909646160       30.4439899935
  H        -4.6420445478       11.0322518497       26.1185627498
  H        -5.7375899655       11.1664194058       27.3491880303
  C        -6.3405222773        9.6415753391       25.9771901497
  S        -1.1041340342       18.1142743656       31.2115178918
  N        -1.6096289514       17.7507184094       32.7570149562
  C        -2.0746217015       15.7262311649       34.1019369121
  H        -2.2668243620       13.5565784346       34.8331810813
  C         4.1600341818        8.4681769803       12.7697884932
  N         4.0963997242        7.1251131881       12.5962312463
  O         3.5502936182        5.2181797015       13.8433929958
  H         6.0622917542       10.3849672231       30.6410460177
  H         5.6357682550        9.2356495787       29.3873609926
  C         5.5938402449        8.4405634071       31.3453965151
  H        -5.7012125506        9.0215091237       25.2661210429
  H        -6.9036043321        8.9555265704       26.5893086075
  C        -7.4716835188       10.5540732109       25.4212328436
  C        -2.4406618694       16.5214808132       35.2506402069
  S         4.5283443728        9.4816486147       11.3957840116
  C         4.1045348760        6.4321584994       11.3686371518
  H         6.3727068911        8.6468650828       32.0005136868
  H         4.7557848580        8.3766849406       32.0351247356
  C         5.8633373048        7.1823926240       30.5076541477
  H        -6.9934219585       11.0693227310       24.6011677903
  H        -7.7940678014       11.4342529556       26.0006559257
  C        -8.5778946613        9.7358413013       24.7201647900
  H        -2.3506055798       17.5772903123       35.1035195832
  C        -2.9603887787       16.1166626728       36.4101583661
  H         4.8736812726        6.7566562571       10.6460194443
  H         4.4929047479        5.4717765532       11.5790416592
  C         2.6699946587        6.1944913262       10.7558499174
  H         5.3328893985        7.1817900600       29.5414881289
  H         5.3622133829        6.2911001305       31.0194011776
  C         7.4069346290        7.0024221912       30.3679051276
  H        -8.8216087257       10.1288520905       23.7012332191
  H        -8.2237576241        8.6970081816       24.5532522438
  C        -9.7754707390        9.5597930954       25.6087932380
  S        -3.5349192491       14.5713862150       36.7828721419
  C        -3.0223818816       17.1138946264       37.4631181911
  H         2.5668936953        5.3418648574       10.1384095943
  H         1.9544189237        6.2457156511       11.4913568059
  H         2.5256810045        6.9660972734       10.0369352097
  H         7.8398115451        7.9759088510       30.0198783140
  H         7.7155029630        6.3234350904       29.6465921748
  H         7.8591991479        6.8179190071       31.2873868036
  H        -9.4530659809        8.8194222601       26.3875725685
  H       -10.5508800467        9.0651250872       25.0436960336
  H       -10.1833433940       10.5202508687       25.9348564441
  C        -3.7503030972       15.2252858110       38.3981976629
  N        -3.5566665132       16.5588778185       38.5379739909
  O        -2.5820590912       18.2670617950       37.3143405079
  S        -4.6483783648       14.5610932675       39.7551092586
  C        -3.6041535029       17.3999710585       39.7285384366
  H        -3.8458315268       18.3992895128       39.4568537868
  H        -4.3523784825       17.1877868527       40.4123611743
  C        -2.1790767542       17.3974823377       40.4274226746
  H        -1.9301849800       16.3543033495       40.5023444215
  H        -1.4550507493       18.0878608557       40.0035565878
  H        -2.1329380649       17.7056822550       41.4461323113
  H         7.4209386720       11.0438289839        3.4048208835
  C         7.9387389254       10.1020174750        3.4781808681
  H         7.2884441183        9.2072781958        3.4469833617
  C         8.8244769756       10.0922280439        4.7443393988
  C         8.7719461484        9.9589785672        2.1774013555
  C         7.9921141217       10.2770692887        5.9807178053
  H         9.3694791125        9.1939222984        4.7457910441
  H         9.5688346418       10.8594179930        4.6708999398
  H         9.4494446667       10.7198787352        2.1163031096
  H         8.2058208824       10.0420403773        1.2945303980
  H         9.2021228230        8.9348829403        2.2303610237
  C         7.3294095275        9.0371933089        6.4918295016
  H         8.6450719494       10.7161745954        6.7930840742
  H         7.2426218175       10.9887584134        5.6631740766
  C         6.6681824474        9.2023204796        7.9044582574
  H         8.0233605288        8.2332027172        6.5769065966
  H         6.6464178518        8.5731337773        5.7618191010
  C         5.5111407623       10.1376483937        7.8784998683
  H         7.5389575142        9.5019813954        8.5049868610
  H         6.2978306206        8.2238767113        8.2222220493
  C         4.1959460809        9.5744866315        7.3513689810
  H         5.3620423795       10.5471552136        8.9005783867
  H         5.7335276247       10.9940520003        7.2114685705
  C         3.0364665479       10.5771210585        7.2063749566
  H         3.8343509224        8.7254518141        7.9912752901
  H         4.4671744146        9.1259202765        6.3654889161
  C         3.4223761946       11.9704336154        6.5376015906
  C         2.5459619745       11.2890491632        8.3945996797
  C         1.8475182323        9.8112441474        6.4431425721
  C         3.0905348865       13.0486852002        7.2884473054
  C         3.9804366909       12.3450233160        5.2927515784
  C         2.5295145940       12.6617488640        8.5091558271
  C         2.0014727705       10.6826886723        9.5316349732
  H         2.3116119808        9.4364858720        5.5307381481
  H         1.5306489317        8.9185640155        6.9383579995
  C         0.5673559837       10.6997806135        6.1167753651
  S         3.4498892741       14.5116828821        6.6236239494
  C         4.0948661645       13.7104154663        5.1841418155
  H         4.2058183704       11.5583628041        4.5859122792
  C         2.0326551833       13.3441039697        9.5993441206
  H         2.1572527554        9.6263992631        9.5987423603
  C         1.5865961856       11.3721106268       10.6278434877
  H         0.9428060795       11.6000524945        5.6786685666
  H         0.1539819631       10.8692609903        7.1593702556
  C        -0.4466749315        9.9427960597        5.1648404962
  C         4.5031324435       14.3779448494        3.8992482098
  C         1.6056546073       12.7155154326       10.7677140308
  H         2.0642009475       14.4471204775        9.6419664447
  C         1.2223090779       10.9217325837       11.8628761171
  H        -1.2762734789       10.6986694612        5.1383949340
  H        -0.8599535604        9.0071879672        5.4851604235
  C         0.0217607581        9.9793192444        3.7458016328
  C         4.3782392721       15.7149826961        3.5382401002
  C         5.0841222995       13.4618281219        2.7948651461
  C         1.1573942472       13.3092615317       12.0583629156
  C         1.0645423391       11.9900734982       12.7159220065
  S         0.8616156847        9.4260052935       12.5686363441
  H         0.6687261803        9.1336060331        3.6100996336
  H         0.5074888210       10.9298088438        3.6582356673
  C        -1.0657444335        9.8132916692        2.6431980603
  N         3.8290497374       16.6704409704        4.3857337134
  C         4.5817157030       16.1779426033        2.2659067217
  C         5.3751104972       13.9845547228        1.5336163856
  H         5.1716530289       12.4053618935        2.9059489644
  C        -0.1640025973       14.0726873773       11.7964086218
  C         2.2651675422       14.0745594832       12.7649850829
  C         0.7637600539       11.5899199372       13.9941688005
  C         0.6510164950       10.2346666788       14.0863079624
  H        -1.6062995692        8.9083348973        2.6666113246
  H        -1.8078150591       10.6264028511        2.7787736911
  C        -0.3926379073       10.0036660275        1.2865105966
  S         3.6917869526       18.0437782709        3.5586600110
  N         4.3496024217       17.5269908424        2.2091356448
  C         5.0525962797       15.3849021040        1.2350484677
  H         5.7060930899       13.3471229918        0.7013394403
  H        -0.0161505097       14.9676561552       11.1844108706
  H        -0.4084180223       14.6560111248       12.6185602527
  C        -1.3518771935       13.2251644877       11.3187268882
  H         2.4814161100       14.9242305357       12.1375344177
  H         1.8387101985       14.4675484790       13.7332826316
  C         3.5873952147       13.3737072690       13.1762716683
  H         0.6251871824       12.3828750078       14.7480589498
  C         0.3420199116        9.4195743521       15.3372343342
  H         0.4415212174        9.3162871996        1.1146311710
  H         0.0767887492       11.0502828959        1.1933011499
  C        -1.4078509212        9.9391968584        0.1111541107
  C         5.2906752525       16.0566944405       -0.0593784555
  H        -1.0586264596       12.7105091934       10.4267519326
  H        -1.5985630375       12.4820688738       12.0660272981
  C        -2.5894677051       14.0858690122       11.1186340474
  H         4.1300264763       13.2060112688       12.2057228075
  H         3.4335240802       12.4239021631       13.7309288119
  C         4.5422368851       14.2243244588       13.9197279369
  C         0.2211875502        8.0134538927       15.3835139276
  C         0.1721035360       10.1609023525       16.6241655427
  H        -1.8788585491        8.9699957565        0.0788572525
  H        -2.0973991157       10.7425242607        0.1810248511
  C        -0.6965900269       10.2434875364       -1.1150550979
  H         5.1921582912       17.1743596215        0.0089752721
  C         5.5289192015       15.6377968311       -1.3841026835
  H        -2.2185991505       15.0849451988       10.8113116144
  H        -2.9423202679       14.1640097029       12.1362353319
  C        -3.6610969463       13.6152267979       10.0733421586
  H         4.8225060718       15.1161715781       13.3748160881
  H         4.0844694187       14.5660528696       14.8834011077
  C         5.8748359497       13.6540288511       14.4810463445
  N         0.4796905366        7.1186525717       14.3367578828
  C        -0.1296085344        7.3576638528       16.5535342054
  C        -0.2511771302        9.4969165328       17.7535012430
  H         0.2166234077       11.2655815241       16.5360217728
  H        -1.3382413363       10.0585762182       -1.9573235272
  H         0.1803331966        9.6138324726       -1.3654165571
  H        -0.3563734047       11.3244026678       -1.2123554010
  S         5.8657195300       14.0615481565       -1.8433026456
  C         5.4715837727       16.6867365476       -2.4501502788
  H        -4.0340567924       14.3870106040        9.4644613126
  H        -3.0483166906       13.0625960341        9.3495511249
  C        -4.7899414479       12.7818996991       10.6601320337
  H         6.5264406593       13.2265108518       13.6826228280
  H         5.5865999508       12.7776491836       15.1901922636
  C         6.6478282502       14.7485335164       15.1631415994
  S         0.3555114065        5.6352504684       14.8784146505
  N        -0.2562462631        5.9855137923       16.3307555166
  C        -0.5126001735        8.0313063790       17.7573821459
  H        -0.3805717835       10.0676559736       18.6410872915
  C         5.9869966254       14.7678748405       -3.4896652596
  N         5.8806686766       16.0788319358       -3.5874282830
  O         5.3280350533       17.8973722659       -2.2461499119
  H        -4.3627442632       11.8933277696       11.0438396656
  H        -5.1806600814       13.2684457206       11.5519505363
  C        -5.8584926243       12.3721245517        9.6311752008
  H         5.9117704632       15.4103246251       15.6521034839
  H         7.1851736281       14.2394207498       15.9739977719
  C         7.6425415541       15.6034147571       14.3783757986
  C        -1.0028845367        7.2427584076       18.8525053255
  S         6.2099830547       13.8684450329       -4.9314452884
  C         5.8075123959       16.8657606567       -4.8658809327
  H        -5.3955841542       11.9181665684        8.6888306420
  H        -6.5067158928       11.6411340320       10.0897918286
  C        -6.7690075553       13.5421361095        9.2256908890
  H         7.7121549830       15.3670038656       13.3568305299
  H         8.6863105170       15.3930437433       14.7298151188
  C         7.5725904135       17.1645351189       14.4654232370
  H        -0.8074836585        6.2366029454       18.7805312925
  C        -1.4280326847        7.5342792556       20.1022964763
  H         6.4595243981       16.5185713778       -5.6776419111
  H         6.1293427246       17.8423323404       -4.6911972226
  C         4.3747604503       16.9453421830       -5.2204138614
  H        -7.1932663565       13.3261622577        8.2080446021
  H        -6.2206839858       14.4925019879        9.2701430091
  C        -7.9632464527       13.7254546437       10.1654754110
  H         8.2574722242       17.5531426320       13.7638841862
  H         6.5047701486       17.3420647050       14.1622236751
  C         7.8155774948       17.7410464842       15.8511417891
  S        -2.0742189597        9.0224570260       20.7089165365
  C        -1.4294673682        6.4016127525       21.0787099363
  H         4.1065784700       17.7122992138       -5.9761177002
  H         3.7043757919       17.2346719714       -4.4626702080
  H         4.0451927698       15.9659599214       -5.6236898628
  H        -8.3985953097       14.7191012656        9.9817824670
  H        -8.7431152862       12.9552032014        9.8950607735
  H        -7.5889365374       13.6118004489       11.1878775730
  H         8.4643658233       17.0711317005       16.3557587980
  H         8.2211997850       18.7344346597       15.7110619756
  H         6.9150212678       17.8937533339       16.4792728451
  C        -2.2165004721        8.2077631377       22.2697835578
  N        -1.9104440602        6.8656808076       22.2486139852
  O        -1.0730698862        5.2055589082       20.8939802068
  S        -2.6189399422        9.0319874457       23.8090476393
  C        -1.6473850124        6.0075240613       23.4665299745
  H        -1.6831749877        4.9986860696       23.2710076325
  H        -2.5289716037        6.1944314275       24.1564369080
  C        -0.2965498127        6.3848273346       24.0900784650
  H         0.0356195260        7.4260650995       24.2239037909
  H         0.5447115740        5.8876023172       23.5075796405
  H        -0.1947031106        5.7531069569       25.0067040882
