352
i =
  H        -1.9176468072       15.2405421502       16.4514002879
  C        -2.3734806433       14.7909860260       17.2817811816
  H        -2.4619602590       15.5464353963       18.0284784652
  C        -1.4200991515       13.6486663973       17.5646879808
  C        -3.7845167157       14.2978113922       16.9134816841
  C        -1.1221571253       13.3592790063       19.0171826632
  H        -1.7481523343       12.8271714060       16.9507461412
  H        -0.4667804286       13.9798785858       17.0858266045
  H        -3.9290920848       13.2560872867       17.1600149194
  H        -4.5252543683       15.0376483002       17.2435027306
  H        -3.7798706661       14.2371052090       15.8000139715
  C        -2.3278408714       12.9193709223       19.8675082590
  H        -0.6548128194       14.2102729990       19.4506253985
  H        -0.3275677461       12.6039589916       19.0167634158
  C        -2.1918624368       13.4243962469       21.3595249963
  H        -3.1660184672       13.4734351374       19.3793804249
  H        -2.5505187964       11.8797124420       19.7447874994
  C        -1.1510868750       12.7875614047       22.2388179438
  H        -3.1194441078       13.3397213703       21.9355908075
  H        -2.1323057019       14.4849631630       21.2667935863
  C         0.0966687899       13.6608645519       22.5175866542
  H        -1.5830608625       12.5123414396       23.1408268027
  H        -0.8156083399       11.9459599371       21.6180145906
  C         1.2584004961       13.0014628801       23.2670602598
  H         0.4769070908       14.0765441577       21.5935049236
  H        -0.1655389199       14.4895715650       23.1617038709
  C         1.6707947789       11.6526157663       22.6569820913
  C         0.8597155148       12.3092558596       24.4800903104
  C         2.4970158436       13.9314436494       23.4088026491
  C         1.4020263244       10.5393751833       23.4408250381
  C         2.0624765327       11.2445328764       21.3334931716
  C         0.8429947462       10.9617076087       24.6134693292
  C         0.4264815427       12.9459501835       25.6771068874
  H         2.7356558274       14.3345356326       22.4304660006
  H         2.3895614197       14.7203891129       24.1052777006
  C         3.7773813401       13.2086980680       23.8677434031
  S         1.7107330356        9.0342599468       22.7621741495
  C         2.1889004776        9.8944800002       21.2832910643
  H         2.3128819588       11.9969199191       20.5587401718
  C         0.4178500576       10.3043711461       25.6984435899
  H         0.3896493730       14.0198489144       25.6866142361
  C        -0.0254420051       12.3264301036       26.7878186529
  H         4.0453322207       12.4664147521       23.1492247929
  H         3.4830768271       12.6686427635       24.7798398368
  C         4.9979760983       14.1073104781       24.1953230272
  C         2.6050079298        9.1054020965       20.0675640614
  C        -0.0665215535       10.9232934346       26.8206210190
  H         0.4352705290        9.2457786302       25.7647441793
  C        -0.6318346831       12.6833196597       28.0082272665
  H         5.6413777279       13.4245151954       24.7237266271
  H         4.8115968865       14.9489853671       24.8166706907
  C         5.6949450032       14.6103614248       22.9353461504
  C         2.5432590053        7.6874355325       19.8989706381
  C         2.9857720578        9.8211084065       18.8894223370
  C        -0.5109006794       10.2111726744       28.1089743439
  C        -0.7627040604       11.5413725026       28.7745881284
  S        -0.9723192320       14.1680592590       28.7809076750
  H         6.4685522760       15.3518745117       23.1676007658
  H         4.8711541488       15.0219009065       22.2823516792
  C         6.3507580670       13.5832261691       22.0240810994
  N         2.2929592396        6.7711014360       20.9443953861
  C         2.7966737543        7.0421774323       18.7061975533
  C         3.2223234923        9.2119960505       17.6457034088
  H         3.3089682091       10.8454672580       18.9960948759
  C         0.6607726722        9.3546019653       28.5842088494
  C        -1.8659218818        9.4259773151       27.9645443697
  C        -1.1860136138       11.8296023163       30.1069326930
  C        -1.2939481844       13.2118150162       30.2199573868
  H         7.4352065782       13.7704525854       22.1860846137
  H         6.1849765301       12.6058382373       22.3896695328
  C         5.7914754117       13.7533706679       20.6410286412
  S         2.1683945576        5.2597835116       20.3095116223
  N         2.5571792539        5.6741694365       18.7789730372
  C         3.0712652443        7.7186975565       17.5189157088
  H         3.6249042395        9.8456468827       16.8162136844
  H         1.1453175476        8.7510162686       27.7924870668
  H         0.2329127123        8.5721582821       29.2410226351
  C         1.6854040210       10.1932253882       29.3333145238
  H        -1.6852742204        8.5092718271       27.3978070824
  H        -2.3347499560        9.0730329127       28.8398590636
  C        -3.0538909478       10.1965274946       27.3397244584
  H        -1.1553209724       11.0723364516       30.8012777538
  C        -1.6442289674       13.8614130500       31.5312987490
  H         5.7937763592       14.7506227216       20.2862399806
  H         4.7273894661       13.4406469042       20.6246409749
  C         6.4118387028       12.9831244673       19.5417378047
  C         3.1932261904        6.9223713867       16.2914341258
  H         2.1579771405       10.9304318331       28.6925432515
  H         1.2180452122       10.8135352395       30.1038892024
  C         2.8273772321        9.3140080422       29.9398432781
  H        -2.8004383340       10.6217503941       26.4221712829
  H        -3.3530831740       11.0004474346       28.0281477473
  C        -4.3600152466        9.4329107617       27.1314973198
  C        -1.7814229622       15.2702725940       31.7662959242
  C        -1.7714864159       13.0431296556       32.7492416983
  H         6.5366099057       11.9354297916       19.8244852521
  H         5.7670829791       12.9163440112       18.6515367149
  C         7.6742210651       13.5776323837       18.9682539787
  H         2.9541362759        5.8666422452       16.4251835916
  C         3.5305675597        7.3440749686       15.0460672108
  H         3.3800702831        8.8288075139       29.1267818339
  H         2.2714913138        8.5363097406       30.5948749479
  C         3.8390936213       10.1065645807       30.8077448130
  H        -4.0578992782        8.6198605679       26.4162544313
  H        -4.5919522299        9.1544857055       28.1694345786
  C        -5.5059333303       10.1803091682       26.4094533857
  N        -1.7729532284       16.2864327588       30.8149322265
  C        -2.0371268339       15.8237368017       33.0258103328
  C        -2.0114021292       13.6370545347       33.9799559935
  H        -1.8657423500       11.9557233576       32.6814209554
  H         7.4471160373       14.4553199299       18.3539129860
  H         8.2686697684       13.8580599935       19.7958012085
  H         8.1778537914       12.8876249043       18.3391650773
  S         3.9630291825        8.9651681404       14.5930430468
  C         3.6233866971        6.3243410972       13.9578335646
  H         3.6471996170       11.1847397453       30.5349240680
  H         3.5756666212        9.9618213152       31.8256262157
  C         5.2425040277        9.7129935778       30.5770933538
  H        -5.0003173746       10.7606655466       25.6201460605
  H        -5.9502008466       10.9139119406       27.1393411492
  C        -6.4593464498        9.1757292000       25.7498359012
  S        -1.8935151805       17.7252072263       31.5289224098
  N        -2.1853237401       17.2288851862       32.9935082712
  C        -2.2131006145       15.0576687630       34.1995987397
  H        -2.0145373739       12.9701804292       34.8336451334
  C         4.1593812007        8.2642067024       12.9643369128
  N         4.0316202053        6.9093255787       12.7956178062
  O         3.3204750471        5.1563543455       14.1127711960
  H         5.7550425068       10.6280993243       30.3751930856
  H         5.4172981506        9.1829772870       29.6700456618
  C         5.8081540441        8.9745064274       31.8036130177
  H        -6.0076127415        8.7846540479       24.8101960444
  H        -6.8207145763        8.3564422086       26.3484563541
  C        -7.6179099374       10.0275583476       25.2493948419
  C        -2.3744535112       15.7804584644       35.3910248504
  S         4.3949061052        9.2086076330       11.5461108215
  C         4.1818144836        6.2076622374       11.5551557574
  H         6.7359406189        9.4932512885       32.1754088144
  H         5.1720680074        8.8362134600       32.6810889466
  C         6.2845207356        7.4743089622       31.4991010991
  H        -7.4443718088       10.2490101358       24.2621369681
  H        -7.5262153489       10.9531363970       25.7794489613
  C        -9.0585968108        9.5128747309       25.5303230346
  H        -2.0105926774       16.8198993796       35.3595765256
  C        -3.0672364546       15.4983827884       36.5421225767
  H         4.9565988505        6.6213064783       10.9170885067
  H         4.3989035066        5.1865238224       11.7665144506
  C         2.7837967636        6.3431109275       10.8952871828
  H         6.8898920010        7.1961265903       32.3905350703
  H         6.8167817638        7.4241061634       30.5526669346
  C         5.1993541869        6.4704984320       31.3940884654
  H        -9.6456319088        9.6893332875       24.6233451060
  H        -9.1919624389        8.4272637703       25.6710067893
  C        -9.6173644685       10.2648738713       26.6824442179
  S        -3.7082345577       14.0196460971       37.0499525448
  C        -3.1554263062       16.5819187288       37.5532729552
  H         2.7277619544        5.8824543790        9.9157522066
  H         1.9933378565        5.8418333396       11.4702219802
  H         2.4908274677        7.3655988676       10.7604162199
  H         5.3619592170        5.6017643768       32.0958013614
  H         5.0772023247        5.9678140649       30.4632629200
  H         4.3293756030        7.0231599867       31.5576083756
  H        -9.4246583973       11.3588263252       26.6691782485
  H        -9.4657048518        9.8476327771       27.6512017613
  H       -10.6397479245       10.2638811970       26.4649024533
  C        -4.0372838214       14.8895274698       38.6143023708
  N        -3.7971221889       16.1817287294       38.6386933002
  O        -2.7064488938       17.7413782521       37.3963332125
  S        -4.8081365189       14.1584888316       39.9877190842
  C        -3.9821491673       16.9898372209       39.8090093001
  H        -4.4517111308       17.8282075831       39.3805459595
  H        -4.8738294897       16.6833327680       40.3847083631
  C        -2.7488112317       17.1600266090       40.6942036921
  H        -1.8924708413       17.6042189760       40.1733444038
  H        -3.0357080228       17.7549197646       41.5999029227
  H        -2.5022881157       16.1549901686       41.0378188830
  H         6.9654856635       10.8093375348        3.1875359156
  C         7.6169337606        9.9105920145        3.1484284345
  H         7.0274537018        9.0015334881        3.2621910863
  C         8.5461623311        9.9375836675        4.3766874747
  C         8.3838676403        9.8381744453        1.8763714482
  C         7.8933765430       10.0961661868        5.8135153940
  H         9.1711209988        8.9984847065        4.3471285714
  H         9.1710585249       10.8450995831        4.2829340166
  H         8.8108045946       10.8121192147        1.5730785354
  H         7.7499612798        9.3874796277        1.1025331989
  H         9.2801755049        9.2449500138        1.9362679173
  C         7.2516702582        8.8603806993        6.3589276813
  H         8.6725365734       10.4866132119        6.4735581105
  H         7.2345140015       10.9868466551        5.7898853804
  C         6.5314366888        9.1780646900        7.6603174236
  H         7.9285967285        8.0814741464        6.5090618087
  H         6.5543960896        8.4491837400        5.6746162918
  C         5.2628771797       10.0303896666        7.5795343285
  H         7.3484220969        9.7370474234        8.1927423214
  H         6.3790706015        8.2640148608        8.2116550188
  C         3.8846814349        9.3422312871        7.1568790533
  H         5.1346224157       10.2754350129        8.6714325127
  H         5.4550029941       10.9352596801        7.0157371085
  C         2.7028358632       10.2650476659        6.8532581229
  H         3.5794954768        8.6008886862        7.8908803083
  H         4.0953015667        8.7142451877        6.2935200804
  C         3.0330676997       11.6015103923        6.1671188868
  C         2.2493859977       10.9300357027        8.1335033701
  C         1.5625291314        9.5294364805        6.1298460500
  C         2.8275113995       12.7098317687        6.9772523608
  C         3.3891019524       11.9485124194        4.8707410310
  C         2.3939065490       12.3038625193        8.2212617589
  C         1.8608701251       10.3485165750        9.2896259938
  H         1.9928994943        9.1941532466        5.1602670224
  H         1.2291115200        8.6639712183        6.7173415472
  C         0.3211027064       10.4620067744        5.8600610788
  S         3.0958516088       14.1973619002        6.1607275437
  C         3.5337611394       13.3170989013        4.7232325527
  H         3.5263685194       11.1184209680        4.1320515270
  C         2.1632229652       12.9879008624        9.4094701112
  H         1.7589369458        9.2437448142        9.3414893034
  C         1.6178197837       11.0695767736       10.4564555587
  H         0.6919665148       11.3949762308        5.4720368664
  H        -0.1957985975       10.6963099925        6.8562336962
  C        -0.7433572944        9.9788368987        4.8971279651
  C         4.0352131601       13.9880537027        3.4424307943
  C         1.7223431516       12.4134754414       10.5486073081
  H         2.3730813447       14.0315458628        9.3983605349
  C         1.2114090580       10.6730313852       11.7631596882
  H        -1.5282466264       10.7457042635        4.6927545602
  H        -1.4536826310        9.2279461666        5.2297747869
  C        -0.0887855599        9.6122638059        3.5342251619
  C         4.1513577624       15.3937055596        3.2318503379
  C         4.4235343472       13.1787422046        2.3099228876
  C         1.3319518932       13.1917834760       11.8070234168
  C         1.0813212547       11.8124897422       12.5188349700
  S         0.8816670858        9.1803349163       12.5586193429
  H         0.4464640949        8.6489624429        3.7235534080
  H         0.6841754442       10.3393763835        3.4304911317
  C        -1.0700442717        9.5681991469        2.3095524549
  N         3.9325212668       16.3548583091        4.2185329246
  C         4.4410625910       15.9543310467        2.0173572526
  C         4.9145794580       13.6911821775        1.1278864521
  H         4.5610057679       12.1083830550        2.4245708314
  C         0.0227794018       13.9594858409       11.5403263215
  C         2.4979445108       14.0066901369       12.4174228548
  C         0.5867831692       11.4583252248       13.7910902006
  C         0.4896383294       10.1056192839       13.9919488697
  H        -1.6257427324        8.6827549132        2.3295177150
  H        -1.7467065288       10.4488435882        2.3890766356
  C        -0.2849630940        9.6501246344        1.0146053057
  S         4.1531841463       17.8716988048        3.5278332338
  N         4.3213664098       17.3191688240        2.0101615583
  C         4.8235100138       15.1705779167        0.8755251914
  H         5.2529729752       13.0104703956        0.4164582279
  H         0.2227528353       14.8857049092       11.0089576325
  H        -0.4246687423       14.3040334232       12.4908274718
  C        -1.1073924646       13.2102294854       10.7391915949
  H         2.9520670759       14.5836865180       11.6031758823
  H         2.1723292699       14.6322133820       13.2761600813
  C         3.6540836885       13.1076683184       12.9905370376
  H         0.3848831231       12.2178656719       14.5404298680
  C         0.1577195455        9.4027123428       15.3075043088
  H         0.3673998360        8.8966279064        0.9202540851
  H         0.2863577610       10.5812168540        1.0314902159
  C        -1.2467104423        9.5299485128       -0.1561528423
  C         4.8948650758       15.8932137268       -0.3180555378
  H        -0.7146412440       13.0215182940        9.7073555626
  H        -1.2796308589       12.2102562002       11.1859148229
  C        -2.4744725295       13.9523291609       10.6916904301
  H         4.2060473918       12.5536318196       12.1681634420
  H         3.2205604629       12.4258084474       13.7118974810
  C         4.6258334629       14.0924318287       13.5747300571
  C         0.1578832455        8.0017875900       15.4468616331
  C         0.0113541197       10.1578147639       16.6033827108
  H        -1.4706628004        8.3762416282       -0.2319660757
  H        -2.2494723316        9.9520469317        0.0459691954
  C        -0.6002709473       10.0474705134       -1.4837817573
  H         4.8642150938       16.9715131987       -0.3143517855
  C         5.2472259107       15.4749433720       -1.6135841331
  H        -2.3681292971       14.9693260584       10.2381204298
  H        -2.8092058225       14.1696092313       11.7471931923
  C        -3.5384572160       13.3103607416        9.8096390740
  H         5.1755320741       14.6483827915       12.7228865215
  H         4.1501719259       14.8278991536       14.2290817071
  C         5.7873934646       13.4765734773       14.3602822198
  N         0.2762653953        7.0982698212       14.4394141740
  C        -0.1784160474        7.4138275812       16.6860499373
  C        -0.1097286296        9.6044923366       17.8741517067
  H         0.0151368215       11.2192874697       16.5215323014
  H         0.3086401676        9.5358715127       -1.7942459647
  H        -0.3199024642       11.0806662846       -1.3928042248
  H        -1.2926908743        9.9925936061       -2.2665037517
  S         5.5543442613       13.8578108192       -2.1081377220
  C         5.3730399520       16.5358631101       -2.6913875276
  H        -3.1682410645       13.2842568552        8.7907127405
  H        -3.5255990565       12.2527228792       10.1132203882
  C        -4.8756013907       13.8762419829       10.0194543675
  H         6.4631421708       12.8933967249       13.6366652459
  H         5.4443292132       12.6228950848       15.0172656832
  C         6.6574323425       14.4129540264       15.1486385900
  S         0.1907065616        5.6465230712       15.0390094981
  N        -0.1253768302        6.0475011417       16.5550922880
  C        -0.3842792688        8.1497731132       17.8854016854
  H        -0.1911992672       10.2193179027       18.7799707714
  C         5.7811158296       14.5439694421       -3.6646304710
  N         5.7150241952       15.8811375744       -3.7908094884
  O         5.2200568506       17.7650959633       -2.4773529632
  H        -5.2105241340       13.7189962927       11.0043810758
  H        -4.9106052096       14.9379712185        9.8168036878
  C        -5.9049085663       13.2254538391        9.0985308808
  H         6.1327912783       15.1084173677       15.7668448601
  H         7.2140172966       13.7202569634       15.7391052238
  C         7.7323398398       15.1077467566       14.2261660526
  C        -0.6576317631        7.4259777272       19.0387617766
  S         6.2914432040       13.5686874526       -5.0641625320
  C         5.6611487128       16.5876226273       -5.1016360259
  H        -5.4401502572       12.8300303840        8.1254463145
  H        -6.2917243229       12.3077199954        9.5717862551
  C        -7.1841693989       13.9899199006        8.8523679618
  H         7.2525362001       15.4944543155       13.3358327079
  H         8.2840464835       14.2681271044       13.8715295530
  C         8.6345810122       16.2221682657       14.8069330263
  H        -0.5586231300        6.3490687009       18.8971223669
  C        -1.2275590198        7.7201187102       20.2707868869
  H         6.4058528017       16.1942136199       -5.8078351151
  H         6.1426936489       17.5639290078       -4.8775241342
  C         4.1593870137       16.7379518807       -5.5573564154
  H        -7.7731553592       13.5976151687        7.9785571040
  H        -6.9200275843       15.0469057917        8.6665397324
  C        -8.1351025390       13.8536778297       10.0434849053
  H         9.0225290266       15.9478795774       15.8405137451
  H         9.4165447499       16.4293994387       14.0983535639
  C         7.8102722904       17.4512389727       15.0764961407
  S        -1.8742405255        9.2866702141       20.6595539297
  C        -1.3414413867        6.6661682026       21.2686735817
  H         3.5625153953       17.1922620198       -4.7499209265
  H         3.7303998519       15.7085665092       -5.8233763227
  H         4.0067334820       17.4362765844       -6.4111871963
  H        -8.4188678994       12.7555461734       10.0880135434
  H        -7.7734322542       14.1946971981       11.0942273743
  H        -9.0484887490       14.3092931411        9.8136097326
  H         6.9141483134       17.1709960757       15.5724689125
  H         8.3038562997       18.2637668702       15.5962721728
  H         7.5710564162       17.8875186895       14.0487609788
  C        -2.1874614362        8.5409458117       22.2424846456
  N        -2.0161417527        7.1668940710       22.2851943989
  O        -1.0064534967        5.4732731388       21.1683417308
  S        -2.9193017528        9.3092078380       23.6561014933
  C        -2.2717204067        6.3522419425       23.4660299255
  H        -2.5524964199        5.3599420489       23.1297703929
  H        -3.1389746451        6.7875640333       24.0074683881
  C        -1.0995435434        6.2411019820       24.4318918856
  H        -1.3665257382        5.9318130783       25.4095929683
  H        -0.5219895273        7.2255040040       24.4292417518
  H        -0.3823625071        5.5171277664       24.1400968487
