352
i =
  H        -4.4716054121       14.0832457569       16.6598962647
  C        -3.7022272423       13.3781693839       16.3336061326
  H        -4.2498176215       12.4658795394       16.3901285550
  C        -2.6208234534       13.1483814548       17.4096071826
  C        -3.1653586660       13.5415029789       14.9249681803
  C        -3.2262174645       13.1587579359       18.8257109742
  H        -2.1127678642       12.1669364755       17.3797440481
  H        -1.8849383856       13.9616962486       17.2723883320
  H        -2.8191893356       14.4448564133       14.6250951060
  H        -2.3105654835       12.9247356859       14.7704492637
  H        -3.8975382933       13.3165175382       14.1623093861
  C        -2.3115744624       12.5895422732       19.9113898064
  H        -4.0375937602       12.4931625498       18.8339369308
  H        -3.6230750111       14.1712230216       19.1207012468
  C        -2.6361917779       13.0447037958       21.3052491195
  H        -2.3354959151       11.5061674761       19.8926376097
  H        -1.2034880872       12.8321952522       19.6673047913
  C        -1.4715677747       12.4505452286       22.2207211460
  H        -3.6361863451       12.5992034025       21.6315795461
  H        -2.6619623403       14.0906341066       21.3385644366
  C        -0.3085413164       13.3964502288       22.4786501539
  H        -1.8916408809       12.4198637893       23.2133869667
  H        -1.1070968262       11.4607481346       22.0857220336
  C         0.9171114642       12.7924022629       23.2917886782
  H         0.0105830738       13.7565751988       21.5153228253
  H        -0.5859443328       14.3719325826       22.9204126925
  C         1.3962501639       11.4420190297       22.6251304346
  C         0.5873994413       12.1156438512       24.5736830825
  C         2.0949988002       13.7588444115       23.5507039897
  C         1.1256628026       10.3393162235       23.4216415603
  C         1.9551144891       11.0039277021       21.4162381693
  C         0.6009319598       10.7772221639       24.6112191016
  C         0.1962911157       12.7385207345       25.7216872445
  H         2.2346269683       14.2105212367       22.5294397031
  H         1.7854130359       14.5609387629       24.2930706283
  C         3.4190402898       13.1086052833       24.0734518135
  S         1.4172144134        8.7644839815       22.8095666795
  C         1.9681962487        9.5969319874       21.3579770514
  H         2.2052755130       11.7290047343       20.6054116413
  C         0.1332953706       10.1492702757       25.7373142985
  H         0.1441181107       13.8208803461       25.7015382558
  C        -0.3076936969       12.1128995366       26.8856915153
  H         3.7937241020       12.4309246031       23.3757685882
  H         3.1160055594       12.5206701997       24.9041341010
  C         4.4760813297       14.1529368632       24.4477200615
  C         2.3301831459        8.8981917087       20.0759783627
  C        -0.3760588253       10.7642806492       26.9067390850
  H         0.1119221207        9.1228701229       25.6734190548
  C        -0.8588483757       12.4398846494       28.0800544065
  H         5.1898166430       13.9330508697       25.2089329004
  H         3.9214272244       14.9229768793       24.9434429305
  C         5.0776683779       14.7704279675       23.1796694478
  C         2.2168358868        7.5267319140       19.8586958912
  C         2.6916980597        9.7491065698       18.9249003201
  C        -0.7915037557       10.0329910228       28.1667742943
  C        -1.0377286136       11.3485213460       28.8934900163
  S        -1.1339748129       13.8994945072       28.8513322116
  H         5.5433245207       15.7575389786       23.4038861179
  H         4.3274678207       15.0000531987       22.4042595086
  C         6.2561904733       14.0300095742       22.5687616765
  N         1.9487339071        6.6222200377       20.9041494721
  C         2.4988988143        6.9284133251       18.6180108190
  C         2.7553664028        9.1435853117       17.6862359406
  H         2.7770962234       10.7855460892       18.9457784791
  C         0.4824355024        9.1870548075       28.6954039812
  C        -2.0756112389        9.1915116435       28.0236724853
  C        -1.6064043576       11.7371925502       30.1557371451
  C        -1.6300199351       13.1142257402       30.2567791994
  H         6.8282103529       14.8980978577       22.1990289188
  H         6.8102470639       13.4920816823       23.4098060867
  C         5.6979832543       13.0363904026       21.4902579809
  S         1.9950982578        5.1607149301       20.1515473696
  N         2.4332135446        5.5489712683       18.6664361599
  C         2.7623481519        7.6613423117       17.4771135670
  H         2.8850526259        9.7853124763       16.8199069060
  H         0.7054972948        8.3070106710       28.1323712511
  H         0.1854575758        8.7410021665       29.6421471540
  C         1.7063430380       10.0338158740       28.8639222894
  H        -1.9261809934        8.4765173908       27.1578612353
  H        -2.0875651547        8.7321520458       29.0255623094
  C        -3.3326721791        9.9829829940       27.7351121436
  H        -1.6836493010       10.8930919554       30.9031758602
  C        -1.9267838262       13.8947718262       31.5297982700
  H         4.6349351125       13.2070660663       21.4316154174
  H         5.9333286925       11.9868031587       21.7978692831
  C         6.2436114026       13.3066145458       20.0793494542
  C         2.8950522771        7.0158659608       16.2452722018
  H         2.1379469551       10.1612751495       27.8748330929
  H         1.5891423357       11.0885202210       29.1193072510
  C         2.6261645273        9.2625821316       29.8415097966
  H        -3.0935255283       10.5386272149       26.8199721587
  H        -3.6673200191       10.6458869486       28.4888314712
  C        -4.5144866987        9.0983985148       27.4173532222
  C        -1.9668720373       15.2713266232       31.6580453664
  C        -2.1306711138       13.1462692648       32.7468649413
  H         5.6993640445       12.5036804317       19.5933750726
  H         5.8781721102       14.1885767271       19.7303146840
  C         7.7441428574       13.2193374802       20.0930142146
  H         2.7014517219        5.9621059976       16.3181269561
  C         3.2044248361        7.4091395786       14.9987681898
  H         2.7586327030        8.3161949997       29.3661524798
  H         2.1798417280        9.0813829350       30.8340682771
  C         3.9848608618        9.9201501666       29.9695955956
  H        -4.1897664133        8.2765147240       26.7184229656
  H        -4.8927698071        8.5285954358       28.2561854302
  C        -5.5341497967       10.1653775272       26.9778342325
  N        -1.9046602833       16.1799142547       30.6040198775
  C        -2.1771120766       15.9431984963       32.8521512061
  C        -2.4535764481       13.7722123014       33.9711219230
  H        -2.1324725713       12.0318992932       32.6678665160
  H         8.1953534943       12.8089635362       19.2047197025
  H         8.0794748851       14.2363780740       20.3532417482
  H         8.0051917385       12.5710701144       20.9106908262
  S         3.4935333362        9.0332551096       14.3376010895
  C         3.1198899788        6.3890004463       13.9048908791
  H         4.0880682562       10.5597065875       29.1337861498
  H         3.9411514981       10.6835724003       30.7774789569
  C         5.1111396707        8.9141829810       30.0735892217
  H        -5.0917580746       10.8569454668       26.2369953222
  H        -5.8406309497       10.8253715995       27.8419248941
  C        -6.7978522482        9.5176222798       26.4626274887
  S        -2.1070464775       17.6573638255       31.1481614196
  N        -1.9599641800       17.3013603936       32.6611254970
  C        -2.4400114311       15.2732045126       34.0999618675
  H        -2.6173077061       13.2419613840       34.8388778794
  C         3.4570056865        8.2004654008       12.7680999350
  N         3.2880600825        6.8845842515       12.7204473842
  O         3.0394400459        5.1644071068       14.1381985380
  H         6.1229629802        9.4061001140       29.8819219090
  H         5.0226663874        8.2629910988       29.2438993049
  C         5.1167327602        8.1037680418       31.4093624833
  H        -6.5697681850        8.5538894184       25.9778763469
  H        -7.4937054047        9.2613714486       27.2592708565
  C        -7.5956539980       10.4409892923       25.5170617390
  C        -2.7764591701       16.0694663480       35.2138677914
  S         3.6755092378        9.0038867978       11.2075926488
  C         3.2101294619        6.1379861849       11.4869744353
  H         5.9006706268        8.5129351824       32.0758201520
  H         4.1695977762        8.2156812394       31.9867665932
  C         5.4240425290        6.6352686953       31.3153563380
  H        -7.0530852787       10.5719513555       24.5690049624
  H        -7.7403695946       11.4988231817       25.9435528380
  C        -8.9405676253        9.7054956851       25.0999533932
  H        -2.4787280009       17.1170079368       35.1227975881
  C        -3.2136590702       15.8653345563       36.4948792008
  H         3.9067723039        6.6044713859       10.7170533572
  H         3.5050209428        5.0887755811       11.6184843611
  C         1.8499127560        6.2099989945       10.8478773250
  H         4.9414643912        6.1205255026       30.5320824431
  H         5.0894281181        6.1698578275       32.1869473891
  C         6.8726514625        6.2525409532       31.0833696739
  H        -9.2718433714       10.3581220031       24.2942937015
  H        -8.6628117357        8.7665488939       24.6302228347
  C       -10.0546349366        9.6374202272       26.2181538582
  S        -3.7801552705       14.3744819015       37.1451899182
  C        -3.2898659991       17.0840213078       37.4104981085
  H         1.5980034196        5.2019338396       10.5871221128
  H         1.0786352013        6.7569513657       11.4612456689
  H         1.8460272441        6.6785131425        9.8938444463
  H         7.0596427937        5.3139677692       31.5806271182
  H         7.5614228925        7.0338741320       31.4070972439
  H         7.2275899400        6.2124270356       30.0464529677
  H        -9.9858733993        8.7881545389       26.8501531341
  H       -10.9950675053        9.5636484529       25.7001745349
  H       -10.0493135428       10.4721577918       26.8936094836
  C        -4.2155545650       15.3636613789       38.6233974743
  N        -3.8987493416       16.6641598467       38.5609566456
  O        -2.8678376793       18.2006800265       37.1960974009
  S        -4.8330148857       14.7106275275       40.1036695591
  C        -4.0401149382       17.6416500501       39.7050363824
  H        -4.3642952609       18.5643172736       39.1643098811
  H        -4.9659671138       17.4597537984       40.3079379707
  C        -2.7537697923       17.7747084462       40.4276624321
  H        -2.3785800219       16.7923298547       40.5834822713
  H        -2.0007057361       18.3340641197       39.8419004496
  H        -2.9907738385       18.0947388648       41.4824295016
  H         7.3864355078       11.0531478069        3.5749117111
  C         7.9375995259       10.2261141646        3.8111358983
  H         7.2753918225        9.4041197751        3.8427740696
  C         8.6908660025       10.6523239646        5.1133251061
  C         8.8967763283       10.1148972228        2.6542000335
  C         7.6987735923       10.8692494200        6.2596071835
  H         9.4406367210        9.8546123196        5.3527942019
  H         9.1849781120       11.5677138520        4.9329212765
  H         9.2768399063       11.1363038860        2.4997706294
  H         8.6003999350        9.6798221959        1.7608333035
  H         9.7537280657        9.5472840274        2.9430390630
  C         6.9390672862        9.5478280932        6.5528613047
  H         8.1014259299       11.2514250027        7.2006995321
  H         6.9448891520       11.6191397164        5.9354850645
  C         6.1777746648        9.5255795396        7.9123493154
  H         7.6521727156        8.7337128986        6.3037658115
  H         6.1357864766        9.5120009794        5.8325116149
  C         4.8907209349       10.3230992324        8.0121881052
  H         6.7874455177        9.7611113962        8.7518211151
  H         5.9629942046        8.5430107602        8.2774608203
  C         3.6705353225        9.5249902521        7.3392249208
  H         4.7898902062       10.5334237385        9.0914491602
  H         5.0645203530       11.3334750321        7.5321773294
  C         2.4914476162       10.4545513625        7.0592582574
  H         3.3270482162        8.6312580882        7.9114464212
  H         4.0621030455        9.0586284235        6.4440091101
  C         2.9083291999       11.8247158389        6.4532277903
  C         1.9894049385       11.1829144367        8.2614272586
  C         1.4859654027        9.7097224009        6.1712717711
  C         2.5914331736       12.9611647100        7.2073386930
  C         3.5419054890       12.1273168950        5.2347098975
  C         2.1380406891       12.5249577515        8.4137581844
  C         1.4340593002       10.5671236611        9.3849270524
  H         2.0426442979        9.2774866914        5.2913851845
  H         1.1784880394        8.8393322368        6.7527570908
  C         0.2779393809       10.4962315151        5.5597749569
  S         3.0017367965       14.3764339139        6.3618275132
  C         3.5777244094       13.4659609336        5.0213148093
  H         3.9335297215       11.3725854355        4.6181217034
  C         1.7028160823       13.1510273101        9.5807480796
  H         1.4547430443        9.4952327581        9.2183627450
  C         1.1261440637       11.1361369875       10.5960150692
  H         0.5090284951       11.5688877439        5.4552523495
  H        -0.6286572106       10.4950587400        6.2182661896
  C        -0.0936974557        9.9516914816        4.1689792235
  C         4.0884857272       14.2748519640        3.8150092233
  C         1.2619078705       12.4750245877       10.7352647450
  H         1.7633627087       14.2049153282        9.6448127460
  C         0.6222224534       10.7339615602       11.8227750045
  H        -0.1110266272        8.8813861780        4.1437341063
  H         0.6960487520       10.2030049000        3.4560671784
  C        -1.3574858441       10.6037931085        3.5768198459
  C         4.0082947608       15.6512656479        3.5379553455
  C         4.7149888832       13.4725171720        2.7412569550
  C         0.8111361767       13.1565128430       11.9873409431
  C         0.4071165998       11.8472466425       12.6515944355
  S         0.1939031533        9.2169241553       12.5104467343
  H        -1.1040290531       11.4811181123        3.0591638031
  H        -1.9928497906       10.9127039560        4.4487648435
  C        -2.0764804137        9.6948431452        2.5864895932
  N         3.4673607725       16.5594000451        4.4249390777
  C         4.4016905308       16.2323143723        2.3567436467
  C         4.8835391493       13.9886003814        1.4699735867
  H         4.7323241135       12.4050993854        2.7888728333
  C        -0.4733164620       13.9795998661       11.7140618907
  C         1.9313245401       13.8985194826       12.7678200452
  C        -0.0503079195       11.4236708960       13.9388745482
  C        -0.0986251320       10.0333961739       14.0481644953
  H        -2.4527288522        8.8672663490        3.1659156887
  H        -2.9483927021       10.2204878386        2.2244857391
  C        -1.2849815309        8.9196960114        1.5271343340
  S         3.6346565336       18.1161367687        3.7703274969
  N         4.4080875274       17.6652972087        2.3901030388
  C         4.7177637351       15.4279979572        1.2491527242
  H         5.1684305058       13.3194736229        0.6783826168
  H        -0.2427175593       14.9299847885       11.2203464776
  H        -0.8875564626       14.1769124305       12.7362769514
  C        -1.5516569653       13.2640632498       10.9579236718
  H         2.5149009011       14.6020494577       12.0988412570
  H         1.3662868038       14.5386421033       13.4074891274
  C         2.9169012601       12.9965528853       13.4003756719
  H        -0.1462957561       12.2280937102       14.6792662147
  C        -0.2989282711        9.1911169503       15.3461628469
  H        -1.9822376019        8.2955001906        0.9304407327
  H        -0.5229575236        8.2947025801        2.0212871519
  C        -0.3822372177        9.7747567222        0.6094626134
  C         5.0123590882       16.1255004084        0.0287377142
  H        -1.1539414593       13.0033493234        9.9862801117
  H        -1.7051186615       12.3393706803       11.4956875563
  C        -2.8072715286       14.0727231671       10.8515718395
  H         3.2095749510       12.2097988832       12.7092076616
  H         2.5484839641       12.4609192337       14.3256780323
  C         4.2054111921       13.6590857188       13.8272390510
  C        -0.2891561730        7.7951958639       15.4674017975
  C        -0.4437788089        9.9314433270       16.6294113164
  H        -0.4800288922       10.8163806474        1.0460361388
  H         0.6368470244        9.4033875274        0.5631910804
  C        -1.1093343518        9.7619544676       -0.7657225206
  H         4.6432008677       17.2146602047       -0.0389272323
  C         5.4029425235       15.7380289026       -1.2626003178
  H        -2.5130741034       14.8611714198       10.1444401269
  H        -2.9906298313       14.4843597437       11.8933296289
  C        -4.1438762948       13.2812077037       10.5728210092
  H         4.8499822001       13.7573222863       12.9318863971
  H         4.0565029582       14.7188214857       14.1576218558
  C         5.0617424296       12.9120294920       14.7992145425
  N        -0.0396257554        6.9186557984       14.4570028035
  C        -0.6454464322        7.1480105274       16.5907321348
  C        -0.7917780705        9.3080409515       17.8271812265
  H        -0.3114616208       10.9835605359       16.6102557644
  H        -0.9521882875       10.6087961129       -1.3224622199
  H        -2.1875188752        9.8543198620       -0.6568053899
  H        -0.9457113406        8.9101236618       -1.4371004801
  S         5.9115385971       14.2137686131       -1.7742649875
  C         5.3361766657       16.7740791838       -2.3124888920
  H        -3.9510834573       12.2071086441       10.3000108409
  H        -4.7546545026       13.4715284935       11.4476850739
  C        -4.8814698222       14.0853418700        9.5853391627
  H         5.0198501855       11.8417916627       14.6615828193
  H         4.7145276331       12.9988419202       15.8809153414
  C         6.4713968562       13.4404467150       14.9143494451
  S        -0.3681390422        5.3986333611       14.9973294112
  N        -0.7812459945        5.7932056676       16.5095500702
  C        -0.8957656523        7.8318290540       17.8133352417
  H        -0.9807884596        9.8962992648       18.7147619065
  C         6.0802703498       14.9197677534       -3.3872637235
  N         5.7774622337       16.2190427200       -3.4510324433
  O         4.8739867376       17.8653232257       -2.2166919358
  H        -5.3743793684       15.0262553270       10.0404962285
  H        -4.2912940949       14.6425467020        8.8447932007
  C        -5.9552328238       13.1768743154        9.0192918121
  H         7.0085347950       12.6923204150       15.5071928489
  H         7.0022649123       13.4261134862       13.9640805993
  C         6.6842611714       14.7875638465       15.5357219560
  C        -1.1744723867        7.0276322180       19.0134862747
  S         6.4927172199       14.1319832321       -4.8842638566
  C         5.9217195094       17.1033408841       -4.6172110428
  H        -5.5012364031       12.6790853722        8.2002727152
  H        -6.2947427518       12.2588868202        9.6056804319
  C        -7.3305775902       13.9280516901        8.7537743861
  H         7.0219654098       14.5822066210       16.5760232936
  H         5.7493201434       15.2240633636       15.7168370392
  C         7.6805700870       15.7410203764       14.8120046039
  H        -0.8980281840        5.9655681739       18.8990819393
  C        -1.6818167182        7.2613748118       20.2450374371
  H         6.6131295041       16.6485592935       -5.3570056682
  H         6.2135073984       18.1278678239       -4.3575267593
  C         4.6486984456       17.1105767087       -5.4317109349
  H        -7.7195219641       13.4554779427        7.9669608030
  H        -7.2678467048       15.0293722258        8.5399209276
  C        -8.2315655267       13.8236955263        9.9662089238
  H         7.8201718703       16.6386054776       15.4059800974
  H         8.5936324030       15.1869163755       14.7698327850
  C         7.1697823061       16.1596517390       13.4652604731
  S        -2.1792724071        8.8250468186       20.9306623475
  C        -1.6607267317        6.1354939216       21.2607960219
  H         4.5836182336       17.9671230726       -6.0457428499
  H         3.7271710271       17.1817482862       -4.8153198587
  H         4.4485221820       16.2102510536       -5.9497946385
  H        -8.2231510245       12.7877877394       10.3751466269
  H        -7.8023091626       14.3763777115       10.8014546148
  H        -9.2404324769       14.2585263997        9.8551703938
  H         7.7774147898       15.6935417189       12.6934165996
  H         6.0945442511       16.1367160517       13.2938852321
  H         7.3583446627       17.1913050088       13.3158631810
  C        -2.3002766772        7.9322449928       22.4154304581
  N        -2.1771845030        6.5807636263       22.4364421829
  O        -1.1783795220        5.0263829086       21.0342541531
  S        -2.7583246984        8.8624874317       23.9096250480
  C        -2.1301083200        5.7964125383       23.6046865177
  H        -2.4101013049        4.7282513544       23.4824927674
  H        -2.7613564595        6.3007899800       24.2985889156
  C        -0.7415092465        5.9021415715       24.1983670272
  H         0.0557706939        5.7135846683       23.4398738834
  H        -0.5281586322        5.0876902792       24.9622631580
  H        -0.6055665929        6.8947370891       24.6127916846
