352
i =
  H        -1.9198332951       14.9771728674       15.9018616804
  C        -2.2303894636       13.9813775815       16.2113104737
  H        -3.1900769944       14.2509141682       16.6234316079
  C        -1.4453458873       13.2934575447       17.2614448573
  C        -2.5049938294       13.0500423991       15.0582298903
  C        -1.7481611157       13.8921990897       18.6489501464
  H        -1.6875333676       12.2339074713       17.1856670854
  H        -0.3467419663       13.3561820312       17.0603130262
  H        -1.9590175799       12.1051880251       15.1180198533
  H        -3.5149787586       12.7790073869       14.8652681657
  H        -2.0993485271       13.4482508352       14.1038249023
  C        -1.5931343422       12.9065763932       19.7524765764
  H        -2.8634203136       14.0288275613       18.6647607425
  H        -1.1615867954       14.7591830071       18.9447191730
  C        -2.0294565412       13.4066281666       21.0614466643
  H        -2.1973820994       12.0497090345       19.4302027116
  H        -0.5658485914       12.5794829330       19.8732256162
  C        -1.0091964604       13.0035657590       22.2061072175
  H        -3.0296116603       13.0022408750       21.3451376688
  H        -2.0910457688       14.5187710105       20.9784631713
  C         0.2469604817       13.8434031854       22.4048276311
  H        -1.5329323850       12.9426671300       23.1247656671
  H        -0.6570483723       11.9596696027       22.0191490699
  C         1.4048067069       13.0842205657       23.0375959798
  H         0.6804907155       14.1724818066       21.4744526621
  H         0.0293976112       14.7551169821       22.9208028774
  C         1.7457146901       11.7612827884       22.3328835165
  C         0.8949752936       12.3820940516       24.2161748467
  C         2.6190991527       13.9915095872       23.2459241743
  C         1.5254942144       10.6412534025       23.1108023835
  C         2.2871066372       11.3819281395       21.0529807212
  C         1.0070930119       11.0224834669       24.3616136392
  C         0.3111325047       13.0274297557       25.3293812076
  H         2.7839249302       14.4268979297       22.2362170443
  H         2.3529725734       14.7809101560       23.9335193687
  C         3.8978887319       13.1400322098       23.6893377603
  S         1.9073808730        9.1618016812       22.3129718259
  C         2.4277948181       10.0438302874       20.9179988276
  H         2.5915612517       12.1664442982       20.3787978627
  C         0.5773949315       10.4081029112       25.4982107816
  H         0.1935791959       14.0676390194       25.2084206499
  C         0.0302273168       12.4347913778       26.5111391981
  H         4.3973795467       12.7118413453       22.8059651474
  H         3.6321297515       12.3106378813       24.3234877423
  C         4.9241243176       14.1199442117       24.4045911240
  C         2.9166048758        9.4656625800       19.6219563373
  C         0.1369888422       11.0755384630       26.6320719997
  H         0.6219490080        9.3552745502       25.6243475965
  C        -0.2845117221       12.7495524861       27.7980118683
  H         5.5856946538       13.4643265529       24.9815748725
  H         4.4114637442       14.7638073043       25.1624319420
  C         5.6671763459       14.9184608504       23.3871169590
  C         2.8935699021        8.0359784120       19.3010247188
  C         3.3616793752       10.3466853545       18.5072746697
  C        -0.2530409590       10.3600121893       27.8717825837
  C        -0.4873112684       11.6767232095       28.6185621555
  S        -0.5387403833       14.2491646241       28.5934928968
  H         6.2269463673       15.6601660751       23.8528508255
  H         4.8934133478       15.5108391338       22.8722693739
  C         6.5616317985       14.0495611524       22.4727434254
  N         2.5315497176        7.0026308580       20.1473142081
  C         3.2427230276        7.5481404967       18.0371550498
  C         3.5981463313        9.8257030670       17.2676175581
  H         3.5029454320       11.3935759365       18.7139985598
  C         0.8781543186        9.5200967951       28.4416932424
  C        -1.4834757843        9.5478773481       27.7347286691
  C        -0.8884328107       12.0817688570       29.9289305382
  C        -1.0487866165       13.4422311916       30.0553088697
  H         7.5983521078       14.4061608177       22.6273694184
  H         6.6959113086       13.0885490587       22.9110944636
  C         6.1267468977       13.8972041227       21.0577602505
  S         2.3828232757        5.6454797944       19.2523919011
  N         3.0628378776        6.1587284266       17.9117962396
  C         3.5432798727        8.3755190616       16.9137887921
  H         3.8307044947       10.5232559894       16.4264820089
  H         1.0342791047        8.6462161138       27.8258630990
  H         0.4607261008        9.1752469062       29.3787204480
  C         2.2207887807       10.2086646427       28.5726566977
  H        -1.3908159086        8.7168690182       27.0758882551
  H        -1.9634760541        9.2432002310       28.6684416246
  C        -2.6402627896       10.4010254315       27.2305352068
  H        -1.0135675974       11.3394969929       30.6736933334
  C        -1.4403161611       14.1587238030       31.3464849194
  H         5.5847039789       14.7932913379       20.7486602456
  H         5.3494090519       13.1389333538       20.9738582116
  C         7.2382132563       13.4667029552       20.0946570891
  C         3.7987790127        7.8248454009       15.5850233191
  H         2.5165119441       10.6251439047       27.6464653451
  H         2.1625063030       11.0978367953       29.2508666747
  C         3.1777004479        9.1995215691       29.2514375918
  H        -2.3996359771       10.8114426169       26.2896393539
  H        -2.9660252698       11.1894735918       27.9251703608
  C        -3.8631175788        9.5594709279       26.9686234525
  C        -1.5675152621       15.5762185835       31.4295638984
  C        -1.8126079941       13.3942325059       32.6032917786
  H         8.0305690226       14.1405985181       20.1952798923
  H         7.5567255305       12.4587099620       20.3663519392
  C         6.7711794711       13.3507300361       18.6258771895
  H         3.4706465299        6.7943174769       15.5695856525
  C         4.0957557125        8.3282346983       14.3340136698
  H         3.4704825371        8.5544525723       28.4224622875
  H         2.6860634327        8.5191139050       29.9667350957
  C         4.4255289006        9.9730945425       29.7514451942
  H        -3.6514053440        8.6773043686       26.3366287372
  H        -4.3862536098        9.3261673999       27.9283501293
  C        -4.7683529867       10.3044631312       25.9927596193
  N        -1.2267475295       16.3897475072       30.4239535704
  C        -1.8984079218       16.2342160957       32.5993457553
  C        -2.2287782037       14.0978505951       33.7646041289
  H        -1.5941222260       12.3169912159       32.6605865627
  H         7.4995575372       13.1068751703       17.8792986434
  H         6.0410894542       12.5149676337       18.5025638238
  H         6.3720003995       14.3030456362       18.3827400809
  S         4.4839396620        9.9015509381       13.9611984145
  C         3.9985319716        7.4066788020       13.1545231041
  H         4.5017057739       10.7324088184       29.0163464995
  H         4.3452975413       10.4394084847       30.6939430315
  C         5.6795909067        9.0636854015       29.5660937056
  H        -4.1879117279       10.5363526898       25.1040187176
  H        -5.0351158923       11.3264915496       26.4074258330
  C        -6.0254237975        9.5725597942       25.6923233042
  S        -1.3264439862       17.9082090081       30.8824868053
  N        -1.8895772304       17.6292795690       32.4004508345
  C        -2.2812831898       15.5731608484       33.7939598149
  H        -2.4775953801       13.5284440557       34.6330764989
  C         4.4067391376        9.3965582772       12.2516880235
  N         4.2334784669        8.0791380371       12.0395169559
  O         3.6645798361        6.2224030238       13.2241211019
  H         6.5601752655        9.7225070226       29.5713636590
  H         5.6083683345        8.4652140937       28.6752851815
  C         5.9341646882        8.1086946355       30.7747770032
  H        -5.9294368806        8.6920478836       25.0720062989
  H        -6.4816050904        9.1724044718       26.6469480897
  C        -6.9860537223       10.6049986387       25.0832765837
  C        -2.5836595537       16.3912392612       34.9752497329
  S         5.0583606018       10.4562645337       10.9417225508
  C         4.2681332366        7.3431254595       10.8337105657
  H         6.4567808275        8.7548999483       31.4501616698
  H         4.9936365652        7.8018474655       31.2564390940
  C         6.7653044129        6.8376850121       30.4703628198
  H        -6.7857788693       10.6145030074       24.0100119338
  H        -6.8101524219       11.5989821223       25.4945799680
  C        -8.4535648042       10.2682812019       25.3540613639
  H        -2.4870353967       17.4290085464       34.7628499351
  C        -3.0254814943       15.9993560438       36.2023871547
  H         4.9527568348        7.7478892757       10.0883409694
  H         4.6057914141        6.3438963842       11.0032287509
  C         2.8382316292        7.1654039362       10.3544206797
  H         7.7647991676        7.2215590317       30.4556876250
  H         6.5539203048        6.5272741377       29.4745785365
  C         6.6193159458        5.8300091168       31.5975927461
  H        -9.1436369280       10.6862491908       24.5848865126
  H        -8.6399095338        9.2459180804       25.1410601661
  C        -8.9012501937       10.6672537050       26.6991181669
  S        -3.4180884687       14.4509296989       36.8388153970
  C        -3.0902701968       17.1292982857       37.1665360446
  H         2.9031914453        6.6027612757        9.4482297187
  H         2.2193639931        6.6144250695       11.0523660121
  H         2.4215268156        8.1727161326       10.2495569542
  H         7.6059702407        5.3617102498       31.5710357030
  H         5.7898830796        5.1290663658       31.3973978963
  H         6.5379411601        6.3619453224       32.5382147367
  H        -9.6834961369        9.9680483865       26.9523487024
  H        -9.4306871597       11.6746197309       26.7297408094
  H        -8.1149537818       10.6976621779       27.4626496331
  C        -3.7385490632       15.3184133612       38.3736088117
  N        -3.5779435312       16.6700630656       38.3667565963
  O        -2.8111886486       18.2620917857       36.8822293743
  S        -4.3579023394       14.4992108602       39.7796880467
  C        -3.6986837686       17.5372322974       39.5485318180
  H        -3.8823437032       18.5948339884       39.3310550661
  H        -4.5445048686       17.2396901950       40.1769317998
  C        -2.3593030081       17.4778258469       40.3020255156
  H        -2.1790953251       18.4878253152       40.7566603327
  H        -2.3558388406       16.7275150914       41.1136106110
  H        -1.5593936840       17.1851897176       39.6249092018
  H         7.5003772159       11.2206470505        3.0219577495
  C         8.1591095704       10.3610871496        3.0950398098
  H         7.5952052088        9.4400583769        3.1215488235
  C         8.9404041804       10.3095190924        4.5066830382
  C         9.0864769879       10.2528756316        1.8980857057
  C         8.0665238485       10.6140033480        5.7157662627
  H         9.4944154662        9.3573800946        4.6626363618
  H         9.6862458196       11.0877672903        4.3858211280
  H         9.0582520443       11.1320725781        1.2692513029
  H         8.8813007759        9.4052689065        1.2716121002
  H        10.1019629321       10.0755640769        2.2282598414
  C         7.1869557375        9.4641438490        6.2390234711
  H         8.6571069655       11.0007132024        6.5387190573
  H         7.4142068142       11.5594705757        5.3946983301
  C         6.5162322413        9.8035306336        7.5629669219
  H         7.7646374546        8.5501526764        6.2741235265
  H         6.4157813377        9.3009540001        5.5093000191
  C         5.4481964093       10.8517861936        7.2536700219
  H         7.2438787396       10.2144418420        8.2916277324
  H         6.0597574386        8.8863983380        7.9454850270
  C         4.1016014359       10.1042927343        6.8824595149
  H         5.3105255848       11.4247630617        8.1665582434
  H         5.7003719645       11.6552264804        6.5195492079
  C         2.7902378388       10.8889559965        6.6887658564
  H         3.8994877262        9.2708395832        7.5682694826
  H         4.2818281061        9.5600107243        6.0114791561
  C         3.0782594348       12.2445880966        5.9993435570
  C         2.4502387704       11.5928165448        7.9460654458
  C         1.6756140941       10.1324287633        5.9853557884
  C         2.9891103687       13.2859417841        6.8523214455
  C         3.3608523788       12.5961464130        4.6952130375
  C         2.5786205426       12.9354329894        8.1038182454
  C         2.1139385203       10.9070499406        9.1811159179
  H         2.0976940750        9.8621755831        4.9864414508
  H         1.3805964926        9.2408654493        6.5376862202
  C         0.4033031976       10.8917015476        5.8436309723
  S         3.4783160035       14.7922913584        6.1648912598
  C         3.7091412204       13.9348095051        4.6638576634
  H         3.1811233055       11.9048409926        3.8880207148
  C         2.4648571081       13.5247396306        9.3821997115
  H         2.0395645491        9.8399954186        9.1071288405
  C         1.8055002481       11.4864526667       10.3825958457
  H         0.4456019884       11.8324119554        5.2618800876
  H        -0.0575939176       11.1228608586        6.8459432556
  C        -0.4952645878       10.0639036036        5.0042980923
  C         4.1756447416       14.6110848613        3.5012815052
  C         1.9592938534       12.8739853549       10.5022492478
  H         2.6964949235       14.5799639622        9.4023227585
  C         1.4523276688       11.0935641750       11.6660628704
  H        -1.5187296647       10.3654446573        5.1900094478
  H        -0.6282901495        9.0566714325        5.3546526534
  C        -0.1500411600       10.1680659539        3.4786285506
  C         4.3791884999       16.0066447214        3.3756638277
  C         4.8175518487       13.8025140713        2.4246023747
  C         1.7903271796       13.5396170240       11.8323507494
  C         1.5251569871       12.1719518191       12.5437526077
  S         1.1178457298        9.6127330184       12.4726584760
  H         0.6232588006        9.4000090803        3.1842468387
  H         0.2317333424       11.1830130843        3.3101905869
  C        -1.2531099211        9.7218567040        2.4529781656
  N         4.0806320188       17.0667380894        4.2564842505
  C         4.7049897594       16.5715268899        2.0988042541
  C         5.2560005990       14.3166909286        1.2435631246
  H         4.9745318534       12.7407998515        2.5023318118
  C         0.5763827583       14.3800232959       11.8379602176
  C         3.1737188433       14.1391594511       12.1513897880
  C         1.2765747765       11.7949525637       13.8843474666
  C         1.0375146863       10.4765828377       13.9377794299
  H        -2.0738080165        9.0264025075        2.8367001288
  H        -1.7499716012       10.6293224811        2.0620326354
  C        -0.6433173425        9.0451180240        1.1971884370
  S         4.2654172973       18.5058178236        3.5525138791
  N         4.6309819153       17.9980405445        2.0174790420
  C         5.0514970203       15.7618666451        0.9739789476
  H         5.6661364417       13.6259363267        0.5356353921
  H         0.6483700886       15.2951296228       11.2654022060
  H         0.4648328873       14.6117240508       12.9282110579
  C        -0.6981618493       13.5866086255       11.4532876404
  H         3.8973877884       13.4158639841       11.7686325374
  H         3.1235483210       15.1361344166       11.7184454811
  C         3.3850080985       14.5033102379       13.6045451550
  H         1.2796494164       12.5895537100       14.6975293553
  C         0.7490217163        9.7152620256       15.2157206316
  H        -1.4610035485        8.4365327956        0.6700980801
  H         0.1424846815        8.3454143166        1.5192697839
  C         0.0701542530       10.0078274495        0.2093957118
  C         5.2974113682       16.3921992538       -0.3085361654
  H        -0.4786565526       12.8408756279       10.7263434684
  H        -1.1150379236       13.0289849556       12.3082565881
  C        -1.8291255056       14.3662100024       10.7229606630
  H         3.1913336179       13.6252150850       14.2329079144
  H         2.6424111968       15.2916636561       13.8627943479
  C         4.6931613327       15.0018012939       14.0025082542
  C         0.4744696220        8.2678669628       15.2813597958
  C         0.4957220418       10.4625949424       16.4785829813
  H         0.0428651258       11.0310559527        0.5354183269
  H         1.1190650376        9.7278619594        0.1884402013
  C        -0.7106542761       10.0563119975       -1.1088434998
  H         4.9636416699       17.4434131439       -0.3340563378
  C         5.6878152175       16.0171590309       -1.5912434955
  H        -1.4387621992       14.8272179979        9.8482338818
  H        -2.2435241179       15.1345048063       11.3902456037
  C        -2.9373188745       13.4430358192       10.4411332124
  H         5.0347113303       15.6543752554       13.1986570584
  H         4.6221317984       15.6655826879       14.8720936209
  C         5.6498246940       13.8897079320       14.4005462080
  N         0.6370149315        7.3078623355       14.2330627602
  C         0.1551785835        7.6493092314       16.4583289445
  C         0.0157893865        9.8232188369       17.6309630394
  H         0.7696239383       11.4775379551       16.5177837632
  H        -1.7871995782       10.0916930465       -0.9371442326
  H        -0.5618354575        9.1918735575       -1.8640707897
  H        -0.4414922853       11.0158068372       -1.6117538606
  S         5.9948563301       14.3658239527       -1.9941234175
  C         5.7127184966       16.9573755728       -2.6939185450
  H        -2.5611479308       12.7854607676        9.6688192255
  H        -3.0694060930       12.9992280804       11.4338279522
  C        -4.2420680057       14.0795772021        9.8449449323
  H         5.3782460205       12.9771451973       13.7971958486
  H         5.5838993652       13.5852780834       15.4649381428
  C         7.0949372992       14.3849436023       14.1213651286
  S         0.4667895957        5.8758864039       14.8182316077
  N         0.0165628550        6.2858277085       16.3485129369
  C        -0.1738315042        8.3458372977       17.6277895616
  H        -0.1701859535       10.4798277046       18.5063392322
  C         6.1787415043       14.9512856277       -3.6947430125
  N         6.0687802151       16.3201101804       -3.8307457924
  O         5.6377988863       18.1892433876       -2.4612195909
  H        -4.6617069500       14.7858431574       10.5664257416
  H        -3.9428973982       14.5903457775        8.8737201618
  C        -5.2414668483       13.0655028919        9.3703101328
  H         7.8246346544       13.6105900248       14.1746140385
  H         7.2270074253       14.8256085710       13.1216230743
  C         7.4803425792       15.5451744481       15.1727460952
  C        -0.5297254514        7.5144873208       18.7527469800
  S         6.6888484022       13.8946292856       -5.0295893644
  C         6.0820248777       17.0890406059       -5.0844684038
  H        -5.0145986215       12.5054688149        8.4751905946
  H        -5.2623766717       12.3698780204       10.1625961434
  C        -6.6740788444       13.6215008202        9.2383340030
  H         7.6457736363       15.0476490289       16.1459290078
  H         6.6386388553       16.2288713648       15.3259702207
  C         8.7743827582       16.2137397836       14.6587757758
  H        -0.4776463168        6.4686441755       18.6546132815
  C        -0.8564724977        7.7575979102       20.0366283890
  H         6.5379136269       16.6866550640       -5.9872198524
  H         6.4951379664       18.1313256507       -4.8820421433
  C         4.6927578394       17.2217103064       -5.6363152246
  H        -7.2737655760       12.9080523864        8.5846028129
  H        -6.8390974011       14.5561197121        8.7811638654
  C        -7.4585453928       13.6348723907       10.5266695707
  H         9.3611596126       16.8349370300       15.4254700646
  H         9.4378045246       15.4113791275       14.2914626486
  C         8.6915960224       17.1839300064       13.4491756516
  S        -1.0304726242        9.3383335664       20.7542386700
  C        -1.1475190923        6.6239660111       20.9869067200
  H         4.6846373005       17.6273498113       -6.6159925276
  H         4.1058740739       17.8336235711       -4.9764387623
  H         4.2756862627       16.1809669433       -5.6405912307
  H        -8.5197726255       13.9097927526       10.3454955549
  H        -7.5382550850       12.6566681436       10.9870520360
  H        -7.1196355408       14.4279424723       11.1951097918
  H         9.4623747275       17.9205998932       13.4320270775
  H         8.7411072144       16.8219437673       12.4011766990
  H         7.7206271378       17.6405944757       13.3977934756
  C        -1.7169321402        8.5669646736       22.1561164244
  N        -1.7246684537        7.2002207369       22.0813195732
  O        -0.9623122857        5.3958830760       20.7251912508
  S        -2.4926906959        9.3325266715       23.4583751789
  C        -2.1223241309        6.3466426946       23.1311102614
  H        -2.2877936842        5.3352695668       22.7334890652
  H        -3.0973280569        6.7485589372       23.5131716148
  C        -1.0241092821        6.4902559906       24.2024994742
  H        -0.0615442931        6.0959437991       24.0026668632
  H        -1.4324330954        6.0593848095       25.1288656961
  H        -0.8078776933        7.4945067981       24.4156554909
