352
i =
  H        -2.6731038580       14.8274142772       15.9707490451
  C        -3.0016113497       13.8054459626       16.2258559654
  H        -4.0111414152       13.8791340816       16.4734909817
  C        -2.1391095342       13.3458141888       17.4034974055
  C        -2.8914031755       12.9045265717       15.0050596718
  C        -2.7912961518       13.3923249676       18.7966719059
  H        -1.8550786003       12.3342550564       17.1734214466
  H        -1.2207555114       14.0447943518       17.4225434355
  H        -3.0063132829       13.3550823453       14.0518641656
  H        -2.0203116309       12.3254493016       15.0593794510
  H        -3.6328064045       12.0908996196       15.1728165375
  C        -1.6933426866       12.9911793930       19.7895527289
  H        -3.6588127060       12.7679453838       18.8794127924
  H        -3.1291140192       14.4009298765       19.0181025776
  C        -2.2911129741       13.0495373602       21.2346534555
  H        -1.3236762385       12.0791450991       19.4256247664
  H        -0.9040384291       13.7547537521       19.6720619938
  C        -1.3480071859       12.3660181844       22.2431518939
  H        -3.2425563921       12.4942121779       21.2032637882
  H        -2.5759212356       14.0479904692       21.6059857146
  C        -0.1678969191       13.2635950713       22.5146626119
  H        -1.8587914668       12.0297082297       23.1146698375
  H        -0.9596358716       11.4944529677       21.7513351443
  C         1.0313708037       12.6481532839       23.1379625475
  H         0.1175616688       13.7818769352       21.5796551101
  H        -0.4088021204       14.0783542304       23.2521736539
  C         1.5131947489       11.3365371321       22.4641268805
  C         0.5926756207       11.9340824419       24.4482129057
  C         2.2011177011       13.6769893949       23.3374375462
  C         1.2597668774       10.2560929514       23.2963001024
  C         1.8842796512       10.9734199702       21.1908299466
  C         0.6820807206       10.5730340059       24.4923285293
  C         0.1159936078       12.5513961991       25.6456872687
  H         2.3122510099       14.2348591468       22.4194153254
  H         2.0153582733       14.4786563453       24.0231796923
  C         3.4754053222       12.9375457171       23.7364381658
  S         1.5694560334        8.7964847475       22.5714238296
  C         2.0296500448        9.6217276463       21.0933089247
  H         2.1335873265       11.7553350410       20.4365763249
  C         0.2450854456        9.9110484781       25.6070164065
  H        -0.0225804767       13.5946576515       25.7731880396
  C        -0.2909831893       11.8290350901       26.7822977718
  H         3.8167439402       12.2993716723       22.9860228815
  H         3.3620873810       12.3702345419       24.6475845697
  C         4.6203630627       13.9091778810       24.0823553282
  C         2.3652142055        8.8696587895       19.8001780692
  C        -0.2526002265       10.5056284970       26.8101421259
  H         0.4130744599        8.8261004141       25.6256546235
  C        -0.7536327867       12.1635124012       27.9759471040
  H         5.0444418494       13.4714066881       24.9545478554
  H         4.1304804374       14.7276076955       24.4518387461
  C         5.4907344427       14.3579388165       22.9058211258
  C         2.4047332670        7.4688798926       19.6143691986
  C         2.7251037536        9.6504916672       18.5975672066
  C        -0.5985972804        9.7289257110       28.0802216938
  C        -0.9378710956       11.0345715420       28.8162017421
  S        -1.0673515076       13.6609064942       28.7506259983
  H         6.2919200064       15.0287665685       23.3213345017
  H         5.0020659418       15.0857378365       22.1995163627
  C         6.1848521536       13.2745318873       22.0798704698
  N         2.1737868139        6.4865640899       20.5723674671
  C         2.6734484310        6.8484196009       18.4080218974
  C         3.1101435152        9.0918037668       17.4245893783
  H         2.7238336266       10.7716465956       18.6084473226
  C         0.6366601341        8.9547957343       28.7396892250
  C        -1.8910314625        8.8543538011       27.9027053981
  C        -1.3273271028       11.4085501083       30.1235586592
  C        -1.4140352600       12.8070771679       30.2533102318
  H         7.2087266187       13.4573123904       22.1172621871
  H         6.1681115933       12.3352731006       22.6876289326
  C         5.4240453444       12.9371719372       20.7919374556
  S         2.1863182154        4.9760256301       19.9049686982
  N         2.4858114946        5.4666765492       18.3800903428
  C         3.0143122677        7.5970010317       17.2778059285
  H         3.4704406814        9.7540983783       16.6760028422
  H         0.9387595847        8.1519840218       28.0701840095
  H         0.2232326583        8.5576468105       29.6470230637
  C         1.8919475797        9.7177076959       29.1406091705
  H        -1.6148378521        8.1993722265       27.1399834831
  H        -2.0731524565        8.4051617437       28.8559843440
  C        -3.0936719574        9.6338613197       27.4173456645
  H        -1.3591628064       10.6266349351       30.8936801869
  C        -1.7765415372       13.4311083710       31.5753002895
  H         4.3897680031       12.9749215307       20.8720981710
  H         5.5931339959       11.8823185673       20.5789017775
  C         5.7906026373       13.8983826320       19.6780241577
  C         3.2734785417        6.8986420726       16.0290234720
  H         2.1825266603       10.4244302815       28.3243006502
  H         1.5628101406       10.4336360485       29.8600787883
  C         2.9836796143        8.8709332086       29.7941072854
  H        -2.8390510470       10.2815116993       26.6303406929
  H        -3.3882080824       10.3151673749       28.1547053236
  C        -4.2662726538        8.8667791040       27.0211840592
  C        -1.8068437013       14.8410522019       31.8213788347
  C        -1.8984924796       12.5481038995       32.8181236685
  H         4.8231254246       14.1692149432       19.3039329209
  H         6.2232616868       14.7793841625       20.0901923110
  C         6.6367869617       13.2210305175       18.6733191958
  H         3.1596629546        5.8594732154       16.0618411936
  C         3.5821983687        7.3044822109       14.7540715427
  H         3.1506572295        7.9575152354       29.3134419848
  H         2.6301316829        8.4674885255       30.7776593824
  C         4.3051495956        9.5676749277       30.0564638685
  H        -3.8835005052        8.2697135872       26.1616353146
  H        -4.6771812917        8.1801593853       27.7831297562
  C        -5.4534639787        9.7976448256       26.6849861847
  N        -1.7350661015       15.9025860110       30.8485127193
  C        -2.0286236632       15.3940366803       33.0490601886
  C        -2.2867830882       13.1704945617       34.0350372066
  H        -1.7842392087       11.5077514855       32.7216728864
  H         6.0585065636       12.5638641212       18.0588191536
  H         7.1634199769       13.9392617702       18.0011699041
  H         7.4694790379       12.7015795917       19.1655605386
  S         3.8836710206        8.9022395647       14.1567612629
  C         3.6402039741        6.2068325383       13.7424942389
  H         4.4183863117       10.4445474158       29.4130653244
  H         4.3014828938       10.0236940478       30.9934837980
  C         5.4707535405        8.6330917811       29.9550296832
  H        -4.9710640791       10.6717429628       26.1913379023
  H        -6.0440110441       10.1268997777       27.5215360589
  C        -6.2657749392        9.2615329035       25.5323792758
  S        -1.8361285327       17.3669963429       31.5660282285
  N        -2.0598244451       16.7882253204       33.1115684118
  C        -2.3841234957       14.6436279801       34.1813155655
  H        -2.3107025883       12.5262342270       34.8575810875
  C         4.1426384720        8.1793429763       12.5867549311
  N         4.0114904752        6.7858983460       12.6070052602
  O         3.6583863005        4.9748514829       13.9329587079
  H         6.3396394665        9.1289030413       29.6654381178
  H         5.2310953829        8.0064382129       29.0768612489
  C         5.7521108415        7.8096812498       31.1618387225
  H        -5.6930828471        9.0738983035       24.5919374964
  H        -6.6720928447        8.2881944872       25.8294569232
  C        -7.4834225216       10.1095565556       25.2235411046
  C        -2.6970562631       15.3081874390       35.4108092293
  S         4.3740482837        9.0873376951       11.1032489096
  C         4.0591948326        5.8946577575       11.4178123450
  H         6.4177600800        8.4071275563       31.8105512685
  H         4.7636351722        7.5448633412       31.7359349205
  C         6.5014028796        6.4691809700       30.7552360775
  H        -7.1806413654       10.9740834126       24.6099111958
  H        -7.7397527383       10.5027532448       26.2060884351
  C        -8.6879333381        9.3582221992       24.6759840933
  H        -2.5538855083       16.3687957147       35.3969236160
  C        -3.2269516524       14.8493578077       36.6027854409
  H         4.8656040501        6.1454379695       10.7729724861
  H         4.5042390474        4.9203275135       11.6426349995
  C         2.7449897923        5.7767922885       10.6615999345
  H         7.5809975052        6.6856678649       30.8261301118
  H         6.2841572686        6.1608916622       29.7521662949
  C         6.2076158351        5.4164620610       31.7701313168
  H        -9.1552183744        9.8707133225       23.7553273228
  H        -8.3408161101        8.3939692657       24.3302145479
  C        -9.6730271583        9.2067273300       25.8321801376
  S        -3.7061359759       13.3041350496       37.0284714512
  C        -3.3830053806       15.8768722289       37.6901330963
  H         2.9384093024        5.3760515150        9.6308299409
  H         2.0090834978        5.1308693222       11.1572650098
  H         2.2291352470        6.7428374652       10.5619695121
  H         5.8780916429        5.8469745152       32.7070755131
  H         7.1799448606        4.9648357450       31.9290868072
  H         5.4848231273        4.7094262146       31.3417697122
  H       -10.5059064385        8.5123239504       25.5486734966
  H        -9.9663359220       10.1549050322       26.1850584639
  H        -9.1343403774        8.7203296327       26.6754908201
  C        -4.0420892049       13.9298367763       38.6689298404
  N        -3.9643889962       15.2837735327       38.7642723081
  O        -3.1100124703       17.0696293180       37.6387382283
  S        -4.9776810030       13.1135134942       39.8847221283
  C        -4.1406562518       16.0574820044       40.0019779428
  H        -4.2724821213       17.0575878824       39.7285407646
  H        -5.1307085117       15.7501817348       40.4402606684
  C        -2.8518269609       15.9997835685       40.9283379991
  H        -2.8579226173       15.0635174849       41.4913196361
  H        -1.9019715377       16.1515299194       40.3532287165
  H        -2.9011766560       16.7847195155       41.6592528554
  H         7.1733060075       10.7357487233        2.8742974480
  C         8.1166372163       10.1652297849        3.0602848028
  H         7.7638388949        9.1994005013        3.2803624054
  C         8.7823441426       10.8054494385        4.2828110428
  C         8.7797558714       10.0105271122        1.7301663570
  C         7.8276598495       10.6577057697        5.4764155063
  H         9.7368126477       10.2775860159        4.6116828922
  H         9.0915468369       11.8306197648        3.9763841551
  H         8.1333828437       10.3336076431        0.9023317381
  H         9.0198723990        8.9524570040        1.6827185132
  H         9.7115526629       10.6023977282        1.7296688381
  C         7.2243928946        9.2504905441        5.8553521835
  H         8.2146786143       11.1455326783        6.3378214788
  H         6.9751189633       11.2456400151        5.0449584509
  C         6.7443352891        9.1839092529        7.2626166411
  H         7.8803410513        8.4093177803        5.7285045219
  H         6.3935033400        9.0453521066        5.2232419156
  C         5.5531721340       10.0817273161        7.4986728261
  H         7.5681689217        9.4355052172        7.9717195010
  H         6.5343845153        8.1390955543        7.5420279698
  C         4.1946932070        9.4538144937        7.0919223119
  H         5.6228752062       10.3086712594        8.6080836246
  H         5.7667061253       11.0709835473        7.0658204765
  C         2.9797892205       10.4453156699        6.9591842802
  H         4.0477409218        8.7829611352        7.9555577327
  H         4.2922407041        8.7836833750        6.2528695123
  C         3.5074728782       11.7269645033        6.3587717823
  C         2.5243804324       11.1308318221        8.2387085052
  C         1.8255960715        9.8992980646        6.1214824122
  C         3.2397083309       12.7886923995        7.1675139518
  C         4.0527418937       12.1180341519        5.1431329628
  C         2.6586446365       12.4732804250        8.3698784267
  C         2.0305487829       10.4914552981        9.3500402013
  H         2.0921636869        9.9468649422        5.0885674534
  H         1.6346675044        8.8526494758        6.4320210377
  C         0.5128643316       10.7418646330        6.1398258991
  S         3.6357399918       14.3203346978        6.5217107975
  C         4.1838968187       13.4994068563        5.0838702269
  H         4.1804401196       11.3320757210        4.3797463310
  C         2.3457159349       13.0907507233        9.5880246217
  H         2.0274687185        9.3617186045        9.3392011619
  C         1.7206706051       11.0675649725       10.5503566843
  H         0.5721756654       11.8566855301        6.0412375909
  H         0.0447843810       10.6979302280        7.0848747911
  C        -0.5083287178       10.2358250168        5.1686960663
  C         4.6383069838       14.2525192639        3.8822852746
  C         1.8282207137       12.4117699895       10.7475441891
  H         2.6278039001       14.1625541420        9.6155670482
  C         1.2190514446       10.6472431443       11.7718912906
  H        -1.4729933918       10.7927537555        5.2277718596
  H        -0.8419970816        9.2151050949        5.4026667116
  C        -0.1008592666       10.3226343877        3.6690104022
  C         4.7174381282       15.6375426896        3.7057125791
  C         5.0920993445       13.4762278359        2.7089320615
  C         1.3736953939       13.0902767452       12.0090080846
  C         1.0847870019       11.7037285925       12.6168356816
  S         1.0305372659        9.0844388239       12.4552562081
  H         0.7343913060        9.7431817350        3.3424870347
  H         0.2340013390       11.3177530659        3.5872307617
  C        -1.3481759798       10.0203452307        2.7482168260
  N         4.3751219017       16.5855210187        4.6908087342
  C         4.8689471883       16.2083294858        2.4567064102
  C         5.1582408412       14.0331816267        1.4245087807
  H         5.3860732668       12.4519962818        2.7946992589
  C         0.1867314888       14.0352534414       11.8519962614
  C         2.5231416622       13.7188173245       12.7744070619
  C         0.6209930843       11.2432404697       13.8263120727
  C         0.5871116907        9.9020898937       13.9123389740
  H        -2.1564909839        9.5870175253        3.3085624382
  H        -1.6751171609       10.9667982790        2.3706847725
  C        -1.1004867872        9.1070984038        1.5542625561
  S         4.2139762013       18.0609263636        3.9390283706
  N         4.6205570543       17.5476528123        2.4289376659
  C         5.1146661440       15.4905798142        1.2418537234
  H         5.4040210224       13.3735448218        0.6426184156
  H         0.4978554326       14.8323692422       11.2059205929
  H        -0.0985231870       14.5219827536       12.7822844267
  C        -1.0659421677       13.2457116101       11.3618724463
  H         2.8886396247       14.5492142939       12.2256522489
  H         2.2106482536       14.0949895767       13.7777894967
  C         3.6428607234       12.7962245832       13.2109528874
  H         0.3550302641       12.0230772092       14.5712897789
  C         0.2195655995        9.1718334745       15.1536447115
  H        -2.0398461085        8.8090261372        1.1254603310
  H        -0.7321350311        8.1386207593        1.9175906720
  C        -0.2003031376        9.6913720941        0.4970435853
  C         5.2671713467       16.1411331455       -0.0169819881
  H        -0.7084091588       12.8408113794       10.4827035365
  H        -1.2353952272       12.4220077838       11.9632164562
  C        -2.2114769717       14.1414896566       10.9520256868
  H         3.7982155163       12.1285265066       12.3918476273
  H         3.2723793503       12.2111934564       14.0026669610
  C         4.8287981522       13.6763787889       13.6113072448
  C         0.0964093077        7.7541607747       15.2400824430
  C        -0.0699739444        9.9363752850       16.3539212055
  H         0.0504539591       10.7310617728        0.7900220477
  H         0.7857325872        9.2725470253        0.2483465949
  C        -0.8999383256        9.9548656590       -0.8600525628
  H         5.2659871732       17.2455626390        0.0473386460
  C         5.5130863757       15.7142933620       -1.2967084743
  H        -1.9191913233       14.6202410957       10.0311967450
  H        -2.2354164059       14.8054159878       11.8611946699
  C        -3.4213023429       13.2627947959       10.5479310106
  H         5.4561433224       13.7396874927       12.7333515487
  H         4.4403941531       14.6045842645       13.9837911803
  C         5.6819726106       13.2437422634       14.8166872039
  N         0.2388474132        6.8227309692       14.1917931250
  C        -0.1897704916        7.1144057461       16.4636644876
  C        -0.4077658622        9.2939740716       17.5412506044
  H         0.1515379663       10.9823578848       16.3603170537
  H        -0.8945966570        8.9897810715       -1.5220867861
  H        -0.4273633637       10.6608854345       -1.5002513858
  H        -1.8804283003       10.3122342056       -0.7076287811
  S         5.6775831329       14.0690606775       -1.8553762553
  C         5.5340400843       16.7310636072       -2.3644691970
  H        -3.1029077538       12.5392130241        9.7850818371
  H        -3.6384140617       12.6082450209       11.3924859562
  C        -4.5935450799       14.0576079841       10.0244238269
  H         5.6568722531       12.0965601971       14.8408417253
  H         5.4172301538       13.5965918050       15.8088712906
  C         7.0765291789       13.7955948844       14.7084285504
  S         0.2138541964        5.3571724130       14.7771844711
  N        -0.0094025232        5.7350858553       16.3945576468
  C        -0.5803607787        7.8127958828       17.5994531287
  H        -0.5999554832        9.8548579882       18.4233054971
  C         6.0449557199       14.7837268311       -3.5031978893
  N         5.9381941262       16.1470853885       -3.5469403880
  O         5.5960053277       17.9511195907       -2.0892776623
  H        -5.1446149009       14.5616926846       10.7802053138
  H        -4.1426805530       14.7464623662        9.2756996380
  C        -5.5954375997       13.1106384752        9.2950308282
  H         7.7157250995       13.3048396428       15.4990326448
  H         7.5022932939       13.5734997803       13.7300793036
  C         7.1418837792       15.2837024334       15.0293799542
  C        -0.8742742587        7.1120311728       18.7865934094
  S         6.4103292159       13.8839106277       -5.0066933201
  C         6.1585495879       16.9327352862       -4.7212945495
  H        -5.1826400098       12.9902292785        8.2662147890
  H        -5.7061155403       12.1802377413        9.7740856259
  C        -7.0569599476       13.5827686845        9.1808989670
  H         7.3040198589       15.3889871934       16.0530415071
  H         6.1290503818       15.6052737560       14.8119136540
  C         8.1355941597       16.1677543465       14.2442397648
  H        -0.7026246839        6.1032207591       18.5845194135
  C        -1.3899101475        7.4451744533       20.0222661794
  H         7.1423591918       16.7971744096       -5.1214271392
  H         6.1352526883       17.9815694850       -4.4917103960
  C         5.0475976810       16.7610514904       -5.7709058837
  H        -7.6077782889       12.9011270632        8.5123166773
  H        -7.1789668925       14.5627964094        8.7704856491
  C        -7.7060552251       13.5753587130       10.5519746728
  H         9.1694853532       15.9791568929       14.6703142983
  H         8.1727599050       15.8121689004       13.2577598883
  C         7.8871911861       17.6468567881       14.3680172930
  S        -1.8857770886        9.0200272075       20.5443629107
  C        -1.5578311470        6.3505830339       21.0084170601
  H         5.4270066732       16.1592868365       -6.6367722323
  H         4.7206524688       17.8226350201       -6.0072898548
  H         4.1988140116       16.2913104698       -5.2230017529
  H        -7.1669586497       12.8872037542       11.2084124160
  H        -7.6706206185       14.5854661862       11.0428758772
  H        -8.8665335529       13.4118044884       10.4364558455
  H         8.7043981723       18.2370116521       13.8400001085
  H         6.9170041678       17.9371956083       13.9761667692
  H         7.8624765193       17.7918984233       15.4503190014
  C        -2.1663469973        8.2668418129       22.1235597445
  N        -2.0430212490        6.8558230287       22.1958075778
  O        -1.1795392280        5.1988039558       20.8207327138
  S        -2.7841123373        8.9700558193       23.6330867088
  C        -2.1176049555        6.0947402855       23.4442751272
  H        -2.5324554796        5.1380616938       23.2524991392
  H        -2.7809644228        6.5771033298       24.1552113844
  C        -0.7540349314        6.0062847239       24.0473143917
  H        -0.3819358913        4.9869967218       24.2509532828
  H        -0.6355530459        6.6650876289       24.9243389329
  H        -0.0231890833        6.4717769156       23.3234440382
