352
i =
  H        -2.9518753704       15.0183427981       16.1446088601
  C        -3.1425151599       13.9687977812       16.3490964087
  H        -4.1289675611       13.8869939324       16.7777258893
  C        -2.0656512557       13.5678655809       17.3648593848
  C        -2.8888087886       13.1802894045       15.0660526197
  C        -2.3000608468       14.1240374995       18.7845962179
  H        -2.2285735108       12.5341330475       17.4358064521
  H        -1.1015270093       13.8373748955       16.9761472584
  H        -3.6495610140       13.2496606298       14.3386989089
  H        -2.1700748420       13.6587366266       14.4808889324
  H        -2.5582138106       12.1037850869       15.1084148928
  C        -2.0569239560       12.9746859700       19.7831956047
  H        -3.3525267407       14.5077132740       18.9065440093
  H        -1.5820794731       14.9006354682       18.9552356335
  C        -2.3865155279       13.5441734034       21.2020032571
  H        -2.5929475842       12.0492820830       19.6208451297
  H        -0.9676241523       12.7316898061       19.7854219178
  C        -1.4537822332       12.9812743611       22.3010267435
  H        -3.4784506085       13.3042507372       21.4611782765
  H        -2.2702649730       14.6002642438       21.2361378320
  C        -0.1086512134       13.6697664458       22.3204247658
  H        -1.9120328893       12.9010151131       23.3029293000
  H        -1.1944189224       11.9445304628       22.1506243113
  C         1.0327627021       12.9966817665       23.1591262398
  H         0.2906750968       13.6683791295       21.3118101815
  H        -0.2470456747       14.7814282854       22.4365425839
  C         1.4194868572       11.5961432852       22.5802317377
  C         0.4556560513       12.3496023300       24.3738232537
  C         2.2343035220       14.0151153766       23.3623259165
  C         1.0758931525       10.5533679108       23.4498131409
  C         2.0627852993       11.1440450116       21.4004767756
  C         0.5018133210       11.0070715286       24.5957936424
  C         0.1543752566       13.0894039320       25.5633185598
  H         2.5035779841       14.4503133984       22.4597515117
  H         1.9458515395       14.8796689154       24.0402195744
  C         3.4912015122       13.3781427895       23.9238728010
  S         1.4216246919        8.9578285653       22.6645738942
  C         2.0610644931        9.7424052802       21.2635380713
  H         2.4032168209       11.8473073932       20.6219955456
  C         0.1170963971       10.4285068244       25.7397990405
  H         0.1085757594       14.1283844868       25.6281504496
  C        -0.2776427553       12.5099552506       26.7384767724
  H         3.6577303094       12.4214153450       23.4640974716
  H         3.2634292349       13.1688630174       24.9612751394
  C         4.7893836593       14.2431875685       23.8648706655
  C         2.6147840479        9.0061150693       20.0605103362
  C        -0.3391313260       11.1542830503       26.8913099969
  H         0.3726577654        9.3391876812       25.8061638794
  C        -0.6432978156       12.9689673993       28.0308805428
  H         5.5230345055       13.6971126858       24.5143262480
  H         4.6706626345       15.1784813406       24.3656904701
  C         5.3478256953       14.4347501510       22.4961570526
  C         2.5189827104        7.6645840545       19.7974059035
  C         3.1154207632        9.7896106487       18.9305111285
  C        -0.7647101670       10.4955545522       28.1855386989
  C        -0.9883120412       11.8746139131       28.8565796662
  S        -0.7734117177       14.5254853345       28.7795792669
  H         6.3053609015       14.7938861762       22.5529223163
  H         4.7981678310       15.1605404791       22.0589064092
  C         5.3234682618       13.1588411539       21.6435708189
  N         2.1875406627        6.6517088886       20.6507971441
  C         2.6509345677        7.1519699129       18.4679007042
  C         3.4015326534        9.3244449689       17.6588593089
  H         3.4261979719       10.8734342050       18.9907791934
  C         0.4126128508        9.7614535353       28.8916226575
  C        -2.0915155762        9.7319924059       28.0215784105
  C        -1.2891526911       12.3549365576       30.1484485670
  C        -1.3003782599       13.7639415205       30.2491803624
  H         5.7219632317       12.2889632727       22.2137796881
  H         4.3739248249       12.8218055513       21.3022311011
  C         6.1704039148       13.3706286910       20.3165410943
  S         2.0035026639        5.2153498790       19.8447377599
  N         2.4887103187        5.7807562584       18.3953267678
  C         3.0407129110        7.9118834912       17.3455500123
  H         3.5726605260        9.9844186886       16.8484714198
  H         0.6862051094        8.8474034142       28.4371710297
  H         0.1342961559        9.6693002755       29.9183960799
  C         1.7162940894       10.4295195245       29.0195176205
  H        -1.9776142969        9.0050697326       27.2162523709
  H        -2.4281806092        9.2661004516       28.9907034867
  C        -3.2169085556       10.6355958461       27.5538771842
  H        -1.3339409073       11.5100201943       30.8861381507
  C        -1.4906461439       14.5554362103       31.4854611108
  H         5.9185768005       14.2309523504       19.7920502614
  H         5.8849101875       12.5621349533       19.5933100747
  C         7.6650215654       13.2729735228       20.4023951746
  C         3.2683171103        7.3310483293       16.1135307534
  H         2.0909111300       10.6011349052       28.0139498275
  H         1.6162581840       11.4369299891       29.4340931505
  C         2.6991535476        9.5958605898       29.7109012301
  H        -2.8457501309       11.1520412882       26.6560433859
  H        -3.4617407203       11.2714579142       28.3914083728
  C        -4.5198568051        9.8447086103       27.3347014741
  C        -1.6084045374       15.9470651677       31.6116446657
  C        -1.9246252906       13.8133370775       32.6931305019
  H         8.2266969224       14.0896676753       20.8874207355
  H         7.8158703292       12.3780234247       21.0049388385
  C         8.3111587917       13.1331483517       19.0794559670
  H         3.1770423843        6.3163190630       16.0884950917
  C         3.5581131695        7.8438399292       14.8883764144
  H         2.8286052409        8.6648764949       29.2292855173
  H         2.2566462333        9.5161985250       30.7485243875
  C         4.1049214450       10.2987813464       29.8833126244
  H        -4.5226774423        9.3149628210       26.3847640763
  H        -4.5605147872        8.9909046978       28.0754232639
  C        -5.8196268918       10.6566227468       27.3672990323
  N        -1.2581371329       16.9217181689       30.5791873174
  C        -1.9817213140       16.5959005624       32.7862920507
  C        -2.2782215791       14.4378232915       33.8209779801
  H        -1.8647583679       12.7291338272       32.7786751969
  H         7.6394520671       12.6316696284       18.4261997767
  H         8.5153687428       14.1800370879       18.7033814071
  H         9.2638557114       12.5868499073       19.0024960989
  S         3.5858550440        9.4508583466       14.4308505965
  C         3.5660093697        6.8391945090       13.7733221112
  H         4.3764898811       10.7617519041       28.9897089177
  H         4.1468239353       11.0148565453       30.6780064160
  C         5.2840627896        9.3746171482       30.2999251516
  H        -5.6947478834       11.6043503517       26.8319801186
  H        -6.2236289137       10.7827326917       28.3270151579
  C        -6.9361907558        9.9362743305       26.6880859498
  S        -1.4760978238       18.4704657370       31.1270587018
  N        -1.8844191268       18.0409555249       32.6339293913
  C        -2.3481998382       15.9293399867       33.9523761541
  H        -2.6494116763       13.8680702060       34.6902906396
  C         3.8954626107        8.8833072786       12.7594236244
  N         3.8719886721        7.5428434414       12.6371157997
  O         3.5703640154        5.5823062961       13.8608846318
  H         6.1444301124        9.9183651344       30.6179015733
  H         5.6773916885        9.0823325548       29.3267447596
  C         4.9562531514        8.2101782696       31.2151611931
  H        -6.5198568140        8.9660179659       26.2526178780
  H        -7.5663470181        9.8518279116       27.5635878499
  C        -7.7079188356       10.8548068979       25.6956786743
  C        -2.6532368330       16.7424799190       35.0914325415
  S         4.3780596734        9.8755225248       11.3530296946
  C         4.1150738948        6.8527028911       11.3163297347
  H         4.3827902075        8.5624711062       32.0490676410
  H         4.1494233210        7.6156991456       30.7866628925
  C         6.2186307495        7.3522236933       31.4714503586
  H        -6.9010803066       11.1151506043       24.9535480894
  H        -8.1015178991       11.6888080319       26.1553082238
  C        -8.7303201295        9.9996903823       24.8585468708
  H        -2.5531430650       17.8045681489       34.9007408491
  C        -3.0712293345       16.4519618940       36.3734739865
  H         4.9908356571        7.3635794224       10.7916757866
  H         4.4472978638        5.7664655534       11.4838934093
  C         2.7468317935        6.6982569974       10.4567908918
  H         6.2110096486        6.8793474732       32.4367347995
  H         7.1813758921        7.8093323411       31.4500698485
  C         6.1888490675        6.1923130052       30.4646907814
  H        -8.9009321704       10.6494036591       24.0359304516
  H        -8.3790787740        9.0028951963       24.4664677626
  C        -9.8610603309        9.7770241386       25.8458013485
  S        -3.4449915930       14.9236717187       37.1177943759
  C        -3.0759690127       17.5772424240       37.2821725567
  H         2.4054042732        7.6226724257        9.9898820588
  H         2.9384983305        5.9764805298        9.6923589065
  H         1.9444676312        6.2796146212       11.0698495510
  H         6.7825644401        5.3753969211       30.8562522353
  H         6.6443224670        6.4593219932       29.5587877914
  H         5.2099567234        5.8381817163       30.2966253541
  H        -9.6218627220        9.0689875608       26.5788562886
  H       -10.5642453502        9.2587890321       25.2417497935
  H       -10.3610380239       10.6807481324       26.1682655138
  C        -3.9398952749       15.8448213251       38.5095170296
  N        -3.5610088168       17.1318577522       38.4404309526
  O        -2.6718604069       18.7363522660       37.0074446557
  S        -4.3271536780       15.0465493430       40.0196823249
  C        -3.5034606774       17.9973750651       39.5709916603
  H        -3.9810890522       18.9766817985       39.2691295683
  H        -4.1351178190       17.6854985967       40.4096050675
  C        -2.0246162150       18.1829118931       39.9518466790
  H        -1.2655448964       18.5500861344       39.2731226694
  H        -2.0568250456       18.9074243540       40.7055823238
  H        -1.6386435123       17.2625845417       40.4318489952
  H         7.0675819032       11.2218026732        3.4915001626
  C         7.8677369235       10.4326843393        3.3634829297
  H         7.2460488846        9.5114151833        3.4293997986
  C         8.7582732876       10.5464976066        4.6104515583
  C         8.4825456650       10.6249591473        1.9919755918
  C         8.0215668261       10.6556690756        5.9153790076
  H         9.2498921283        9.5140171128        4.6416985760
  H         9.5906952356       11.2608941206        4.4410956104
  H         7.8056897444       11.0010531917        1.2346501458
  H         8.9936736453        9.6472385288        1.6497629248
  H         9.3768038372       11.2951378749        2.1106384402
  C         7.5577842150        9.3066162652        6.5680605924
  H         8.7292626789       11.0616825389        6.6935766824
  H         7.1891035648       11.3775805495        5.7949116731
  C         6.7361597915        9.4309186607        7.9351738790
  H         8.3202246225        8.5857753988        6.7353524851
  H         6.9618522145        8.9133053821        5.7456024255
  C         5.4060629295       10.2794102550        7.8089220517
  H         7.3660090377        9.9673533838        8.6698485201
  H         6.4977910797        8.4421012838        8.3790225203
  C         4.1916054879        9.5924980165        7.1588897137
  H         5.1461082664       10.5954676413        8.7790154431
  H         5.6026181388       11.2003052991        7.2508998798
  C         2.8868149679       10.4445119874        7.1495375342
  H         3.9722312939        8.6669434265        7.6285620703
  H         4.4961614787        9.4415402331        6.0599398423
  C         3.3050463632       11.7505313215        6.5081164601
  C         2.4950177010       11.1359716551        8.4005934679
  C         1.7038593284        9.5967863428        6.5250120336
  C         3.1343107613       12.8963495757        7.3024121952
  C         3.7580926035       12.1239923854        5.2384345049
  C         2.6020113917       12.5293675581        8.5210324414
  C         1.9090229744       10.5115410238        9.5145920044
  H         2.1265000115        8.9990747685        5.7153793503
  H         1.3104112689        8.9136742515        7.1664012724
  C         0.5923588014       10.5217848245        5.9847970876
  S         3.6451935530       14.3763543214        6.5983653964
  C         3.8792333613       13.5122532444        5.1231306606
  H         4.0091154883       11.3627791100        4.4679480146
  C         2.2615485967       13.1538662741        9.6721147523
  H         1.8173979373        9.4594982153        9.3739270131
  C         1.4595499985       11.1919820424       10.5455607357
  H         1.0306878244       11.3271805615        5.3960699584
  H         0.0020735967       10.9567171629        6.8361664560
  C        -0.3118684730        9.8712209569        4.9761760712
  C         4.3811898537       14.1163236199        3.8426219223
  C         1.6928527495       12.5285210692       10.7320891278
  H         2.3056333545       14.2261125084        9.7150719098
  C         0.9307475567       10.7840947158       11.7675241167
  H        -1.2315837732       10.5521760933        4.8366247573
  H        -0.5141686671        8.8362488016        5.1910794244
  C         0.4564812740        9.9729794014        3.6236376301
  C         4.3176245947       15.4697533942        3.6058492906
  C         4.6673121858       13.2179920625        2.6944510734
  C         1.1555180130       13.2230704031       11.9623928415
  C         0.8046292485       11.8792708468       12.5893106517
  S         0.6422026684        9.2391005787       12.5372203600
  H         1.3701496136        9.3446524836        3.6141510448
  H         0.7859859002       11.0194752109        3.5428788911
  C        -0.5751729494        9.7610576061        2.5008276340
  N         3.8687674781       16.4282749850        4.5465916438
  C         4.5702987822       16.0145557053        2.3977769936
  C         4.8775177126       13.7509643077        1.4429253502
  H         4.8400793998       12.1311421515        2.6648964619
  C        -0.1750772591       14.0053364467       11.6935342096
  C         2.1640718611       13.9422474799       12.9554003723
  C         0.3034572771       11.4777701770       13.8268417971
  C         0.2735277698       10.1191975916       13.9774403095
  H        -1.4611279413        9.1203931338        2.8279196015
  H        -0.9050820555       10.7937710419        2.2354521761
  C         0.1156443119        9.2431342855        1.2598016525
  S         4.0855902802       17.9121930115        3.9140467067
  N         4.4210505763       17.4092293624        2.4159881560
  C         4.9496435307       15.2117750083        1.2268302551
  H         5.1899864826       13.1536976051        0.6050798695
  H         0.1860949471       14.8637980688       11.1286562636
  H        -0.5357492616       14.3362592362       12.6791138587
  C        -1.3279436834       13.2357474363       10.9644867289
  H         2.6555447348       14.6418271151       12.2958134382
  H         1.5261262642       14.3549024506       13.7937158674
  C         3.3196384372       13.1498892897       13.5819323626
  H         0.2190639274       12.2777937525       14.5010589150
  C        -0.1448491226        9.4124360201       15.2890288844
  H         0.5424694189        8.2544864203        1.4324084142
  H         0.7648039005        9.9346017553        0.8215489853
  C        -0.9699753769        9.0165027910        0.2088387479
  C         5.1297824191       15.9474002084        0.0109679173
  H        -0.8723685070       12.8883263266       10.0171940744
  H        -1.6925637817       12.4150263307       11.5206441893
  C        -2.4902702481       14.1692808892       10.6903861262
  H         4.0762499323       12.8430659379       12.8563358044
  H         3.0914371631       12.2053918387       14.1192803858
  C         4.0316936734       14.0526653985       14.6219356650
  C        -0.0652636314        8.0395106525       15.5232309933
  C        -0.2986636533       10.2879125108       16.4392734904
  H        -1.1502374371        7.9900989531        0.0372533389
  H        -1.8763199614        9.5538052464        0.5357612888
  C        -0.5365739699        9.6551767222       -1.0787122648
  H         5.1286335946       16.9787938578        0.0939885873
  C         5.4356521439       15.5975001649       -1.2981182908
  H        -2.0181901709       15.0499545029       10.1705722702
  H        -3.0145412547       14.4848246961       11.6070311678
  C        -3.4838117491       13.6519344821        9.7234159269
  H         4.4022362291       15.0003552220       14.1548488178
  H         3.3353947977       14.5444348322       15.3338489381
  C         5.0907022802       13.3854883051       15.4217344685
  N         0.1912036640        7.0441636650       14.5562667127
  C        -0.3045043092        7.4998692761       16.7595941302
  C        -0.4793270980        9.7480123775       17.7070815086
  H        -0.3761289934       11.3256899773       16.2927058428
  H        -1.2520736113        9.4588271001       -1.9036275642
  H         0.3774851640        9.1965692962       -1.3843061063
  H        -0.3798597131       10.7081369226       -0.9258285706
  S         5.6536573345       13.9671141029       -1.9593642133
  C         5.5673241189       16.6572003585       -2.3540312811
  H        -3.9283758349       14.3434514062        8.9924719950
  H        -3.0245880581       12.9094735402        9.1224484576
  C        -4.7498471453       13.1462774437       10.4495892297
  H         4.6683673585       12.4211986369       15.7211034024
  H         5.2290544907       14.0083147318       16.2361296486
  C         6.5090500982       13.2869615901       14.7537237568
  S         0.1371289149        5.5753795460       15.2796237371
  N        -0.2115986105        6.1127315162       16.8143466458
  C        -0.5988466577        8.2920821108       17.8875580493
  H        -0.5727949186       10.4619436351       18.5517261751
  C         5.9287021412       14.7924133383       -3.5219374414
  N         5.8441573599       16.1157408510       -3.5451580053
  O         5.5451808391       17.8630736524       -2.0615988613
  H        -4.4566264068       12.4463495585       11.1955305708
  H        -5.2704030788       13.9942101375       10.9055423472
  C        -5.7609146518       12.4478358461        9.4286490472
  H         7.2587716523       12.7535071839       15.3836436735
  H         6.4233397976       12.6640608937       13.9337707219
  C         7.1460807848       14.5887052810       14.2671158090
  C        -0.7320208254        7.5235855003       19.1276884336
  S         6.0035324517       14.0124142665       -5.1139107381
  C         5.8903602155       16.9755567813       -4.7992001514
  H        -5.1940542866       11.9055749500        8.6373604989
  H        -6.4560914520       11.7029930356        9.8591697900
  C        -6.7131998196       13.4549204189        8.7580213050
  H         6.6103099410       15.1267664685       13.4773510268
  H         8.0366239254       14.3221368259       13.6508594114
  C         7.5491213533       15.5387930566       15.4311009809
  H        -0.1149246119        6.6529656624       19.1701123805
  C        -1.2167339988        7.8618152644       20.3612323568
  H         6.7462650287       16.6350299693       -5.4654204739
  H         6.2513197029       17.9957655570       -4.5340839399
  C         4.5682389525       17.0271723557       -5.5605622659
  H        -6.9390153393       13.0434890338        7.7593066446
  H        -6.1017158578       14.4194158049        8.6701293021
  C        -7.9649875977       13.7236175376        9.5950674126
  H         6.8010863628       15.4632595643       16.1977562566
  H         8.4947005999       15.2910990594       15.9625085938
  C         7.8411831615       16.8833277170       14.8477021211
  S        -1.6557932102        9.4191669188       20.9157605811
  C        -1.4097931360        6.7776735510       21.3423834525
  H         4.8495072012       16.7226063937       -6.5939929773
  H         4.1674973399       18.0239623222       -5.7164701061
  H         3.8572955926       16.3630215714       -5.2036097266
  H        -8.7248520128       12.9700560709        9.5594883306
  H        -7.5555622968       13.8105122566       10.6213337298
  H        -8.3976322075       14.6778745067        9.3521835536
  H         8.4159311006       17.4030205919       15.6091387461
  H         8.2765550958       16.9169992985       13.8595361855
  H         6.9178537217       17.5155332851       14.7355945129
  C        -2.0517860156        8.6639989343       22.4442938894
  N        -1.9260787353        7.2915377465       22.4492169703
  O        -1.1636136764        5.5760218572       21.0961820738
  S        -2.8311402017        9.4972610820       23.7961717476
  C        -2.0268196895        6.5653037771       23.6284367603
  H        -2.2523099054        5.4931024334       23.4534196525
  H        -2.8434852655        6.9849785333       24.2490321291
  C        -0.6980664596        6.4350050612       24.3213467350
  H        -0.8827629435        6.0403641152       25.2620676100
  H        -0.2387710781        7.3797835235       24.5503637384
  H         0.0612399124        5.8734878936       23.7628903687
