352
i =
  H        -2.9920057665       15.1281310910       16.7170766655
  C        -2.6085093220       14.1280568965       16.6690918438
  H        -3.3772681480       13.4951302034       17.0358840318
  C        -1.3791243257       13.8833089778       17.5358187777
  C        -2.3850655402       13.8151588784       15.1635949577
  C        -1.4891972196       14.2927944144       19.0047119021
  H        -1.0112162298       12.9100369068       17.3527206089
  H        -0.6199724001       14.5825268998       17.1615033709
  H        -1.8944182292       12.9176693042       15.0273679764
  H        -3.3534320483       13.8755681607       14.6425843235
  H        -1.7390218737       14.6547265666       14.7545104987
  C        -1.5182012339       13.1415499618       19.9632409480
  H        -2.3686651078       14.8872233952       19.0861288747
  H        -0.7417614375       15.0346184017       19.2964475755
  C        -2.0927401387       13.4583463286       21.3372381252
  H        -2.1955863688       12.3114715392       19.5651707694
  H        -0.5183157472       12.7035352715       20.0075969370
  C        -1.1165868823       12.9372794334       22.3916663307
  H        -3.0337254626       12.9108260656       21.4756791240
  H        -2.2494501002       14.5385567559       21.4930372701
  C         0.0420946724       13.9386255087       22.6332942487
  H        -1.6674895337       12.6825741296       23.3252581497
  H        -0.8354222226       11.9178409100       21.9795681781
  C         1.1784635791       13.1650534281       23.3779890406
  H         0.4709182952       14.3315718745       21.6578406337
  H        -0.3014435331       14.8313959934       23.2088318230
  C         1.6171858688       11.8738592842       22.7097336654
  C         0.8434850428       12.4394839185       24.6448736074
  C         2.4552641976       14.0490986581       23.6632626455
  C         1.4268906542       10.7189172133       23.4309412392
  C         2.0958878713       11.5466861161       21.4611748478
  C         0.9582208535       11.0917804312       24.7129894987
  C         0.4203388984       13.0111654617       25.8215890468
  H         2.7433992206       14.5963795711       22.7201934708
  H         2.1744388049       14.8236684207       24.3646687579
  C         3.6115413741       13.2222608497       24.2443197447
  S         1.7216809635        9.3241339619       22.6832162703
  C         2.1025924423       10.2342990467       21.2958818653
  H         2.3048913039       12.2785398494       20.6665790356
  C         0.6804408562       10.4259617009       25.8870757664
  H         0.5424265276       14.0395496863       25.8270810705
  C         0.1430970195       12.3902138550       26.9645915210
  H         4.0583869704       12.4672059761       23.6073336199
  H         3.2432417839       12.7898747545       25.2134788022
  C         4.8253749318       14.1054301779       24.5232904288
  C         2.4511801637        9.5711367118       20.0251848626
  C         0.2434240494       11.0197936884       27.0457316160
  H         0.8221515593        9.3372491597       25.8585005059
  C        -0.3330530188       12.7141182889       28.2032204631
  H         5.5039495040       13.5330190905       25.1849832613
  H         4.4736107722       14.9411233620       25.0976260012
  C         5.5755245630       14.6572276285       23.3753419604
  C         2.4621027423        8.1583902483       19.7812195465
  C         2.9369895905       10.3965409713       18.8687099374
  C        -0.1813349602       10.3298129073       28.3376996069
  C        -0.4827898685       11.6271853696       29.0264362432
  S        -0.7092981440       14.1956103811       28.8442257567
  H         6.2396881437       15.4603811075       23.7140638515
  H         4.9228719914       15.2915203743       22.7673219274
  C         6.3808832122       13.6823591862       22.5446251080
  N         2.4408743252        7.1525700189       20.7621016240
  C         2.7638572934        7.6145251751       18.5381327339
  C         3.1425442262        9.7999847711       17.6754522206
  H         3.3115634148       11.3468587409       19.0201595830
  C         0.9191308256        9.5693445591       29.1140265842
  C        -1.4405025106        9.5264842604       28.1790509792
  C        -0.9559352136       12.0556065528       30.3047266507
  C        -1.0183197607       13.4142907060       30.4019643020
  H         7.4245376274       13.9807029739       22.6625090671
  H         6.2875785594       12.7262062654       22.9944815207
  C         5.9930027903       13.6048515679       21.0375980215
  S         2.3305634900        5.7146598696       20.0204320467
  N         2.7293325911        6.2395598849       18.5087223017
  C         3.0460318044        8.3788966560       17.3885018528
  H         3.4407171054       10.4272379633       16.8676708522
  H         1.2116761620        8.6415865344       28.6263037283
  H         0.4493851231        9.2052971208       30.0280203942
  C         2.2340342940       10.4069913890       29.4321216085
  H        -1.2292792423        8.6407814423       27.5406946020
  H        -1.6441130923        9.0521296699       29.1205671023
  C        -2.5608637060       10.3288887045       27.6673404459
  H        -1.3341487517       11.3495861067       31.0280865407
  C        -1.3169161551       14.1065064780       31.6855405603
  H         5.5798262115       14.5552506729       20.7686450878
  H         5.1813844879       12.9556752177       20.8500602836
  C         7.1257262161       13.2318369917       20.0296787066
  C         3.1831517580        7.7036534881       16.0937084285
  H         2.6280433408       10.8459448067       28.5111660324
  H         2.0533526830       11.1681555406       30.1963993595
  C         3.1886602266        9.4897862942       30.1572405748
  H        -2.2463765039       10.9887835723       26.9044945356
  H        -2.9055477171       10.9199910793       28.4509188958
  C        -3.8137479959        9.5807397864       27.1972560819
  C        -1.5286172354       15.5111444163       31.8250787492
  C        -1.6109967486       13.3239847640       32.9379645046
  H         7.9842701766       13.8572482327       20.2802646200
  H         7.5091274444       12.2690534212       20.2842664136
  C         6.8132204101       13.3429045200       18.5796565805
  H         3.1113481812        6.6819612179       16.2746892309
  C         3.4823711076        8.0769930281       14.8019360288
  H         3.0090875269        8.4447626348       30.0107710150
  H         3.1131994010        9.6826978761       31.2151763103
  C         4.6821667383        9.8392970723       29.8432459020
  H        -3.4408489273        9.0215506285       26.3178715549
  H        -4.1171513437        8.7609057129       27.8221625493
  C        -4.9936405751       10.4789636931       26.9190556496
  N        -1.2741503254       16.4294588657       30.8409912801
  C        -1.8792933928       16.1598159588       33.0149411970
  C        -1.8663302690       14.0159970294       34.0757790762
  H        -1.4574815604       12.2107031424       33.0271305883
  H         5.8181177961       12.9839025387       18.4241124130
  H         6.7306551931       14.3636269205       18.1681162046
  H         7.4155920714       12.6345677585       17.9555516588
  S         3.7164519794        9.7306825553       14.3183552347
  C         3.6380205149        7.0838846912       13.7684677827
  H         4.6900730507       10.3098372281       28.8741004209
  H         4.9478966272       10.6111004244       30.4784274562
  C         5.6317208054        8.6283835825       29.8353329091
  H        -4.8475672269       11.3857929104       26.3924474528
  H        -5.2955846312       10.8784192937       27.9263158279
  C        -6.1285646096        9.7193833933       26.2589970673
  S        -1.3471814985       17.9335463409       31.4420530437
  N        -2.0052311770       17.5506749039       32.8579396038
  C        -2.0255204170       15.4990165127       34.2159622437
  H        -1.9847296339       13.4563975293       34.9852570401
  C         4.0022602567        9.0208442943       12.7214558059
  N         4.1070647680        7.7014397114       12.6878064714
  O         3.7203633115        5.8709115443       13.9108914502
  H         6.6899572064        8.8329444364       29.6729847385
  H         5.4221427429        8.1091012510       28.9116234167
  C         5.4630210941        7.6791859291       31.0141056885
  H        -5.9685028872        9.4196948658       25.2634171830
  H        -6.2780197599        8.7582544828       26.8470959908
  C        -7.3736484539       10.5944557056       26.3004751931
  C        -2.2906588602       16.1722129884       35.4130056691
  S         4.4450239880        9.8889018903       11.2963758445
  C         4.2036805961        6.9526418037       11.4679948202
  H         5.1104346911        8.1306293856       31.8958387305
  H         4.6418800089        6.9360820977       30.7248883476
  C         6.6897717459        6.7718972155       31.3358322978
  H        -7.1692587438       11.4650421574       25.6758300087
  H        -7.6377501553       10.9150927230       27.3099473954
  C        -8.6275956719        9.9837865767       25.6234439705
  H        -2.1505487541       17.1883271525       35.3962227277
  C        -2.7481056596       15.8245560612       36.6260000074
  H         4.9398442106        7.4049545959       10.7280043764
  H         4.5625238143        5.9421282916       11.6933727077
  C         2.8689875579        6.6914370555       10.7693680187
  H         7.3919962412        7.3085345323       31.9288202475
  H         7.2141221067        6.6337612511       30.4037749033
  C         6.3592018825        5.3587587335       31.8713786042
  H        -8.9568020773       10.5902796102       24.8284229512
  H        -8.4220623251        9.0113647393       25.2184466983
  C        -9.7384412302        9.9192362473       26.6759541268
  S        -3.3002238338       14.2161105176       37.0257418211
  C        -2.9978544826       16.8606008981       37.6521641231
  H         2.9904724482        5.8055482170       10.0967157119
  H         2.0987867315        6.3859815623       11.4630028475
  H         2.3372300017        7.5172434864       10.2167650713
  H         5.2698090419        5.0932800692       31.7169688107
  H         6.4317002562        5.2275206161       32.9524332369
  H         6.9643100443        4.6539290061       31.3912661451
  H        -9.9329784480       10.9133829777       26.9597828732
  H        -9.5191465647        9.2062297438       27.4577555921
  H       -10.6753816507        9.6173758331       26.2061009954
  C        -3.7861400244       14.9495288327       38.5141274029
  N        -3.6909718586       16.2839932156       38.6236511000
  O        -2.8566873477       18.0757681964       37.5143697961
  S        -4.3395148472       14.0756902667       39.9796882864
  C        -4.0798151382       17.0023337784       39.8856568084
  H        -4.2574814264       18.0386541394       39.6284033880
  H        -5.1248912387       16.8277034431       40.2025473722
  C        -3.0515690733       16.9652530586       41.0566119997
  H        -3.2886505687       17.8183757642       41.6924842885
  H        -3.0509228487       16.0600722285       41.6013008779
  H        -2.0872942807       17.2198939691       40.5962361129
  H         7.6394064864       11.1751707093        3.1718216649
  C         8.0051322466       10.1860734628        3.3444631671
  H         7.1277267919        9.5123517153        3.4077444315
  C         8.8207826596       10.2150910748        4.6858760815
  C         8.8780156698        9.9635407721        2.0655114168
  C         8.0231555059       10.5384924114        6.0315149926
  H         9.3107412455        9.2587424109        4.8856527837
  H         9.6555652770       10.8889721905        4.7044009123
  H         8.2129489261        9.8789660333        1.1867238125
  H         9.3401157243        8.9845826790        2.2103314974
  H         9.6438533208       10.7476083314        1.9020438254
  C         7.2394880963        9.3251107887        6.3900713051
  H         8.7694830747       10.8663216877        6.7481736019
  H         7.4558244651       11.4364489901        5.9006340329
  C         6.3937010298        9.4249001050        7.6038446271
  H         8.0046159347        8.5988645657        6.3899356059
  H         6.6322068036        9.0870753908        5.5201723915
  C         5.2253169939       10.3788860503        7.4282177787
  H         7.0071814533        9.8866408673        8.3582365791
  H         6.0722738569        8.4638004839        8.0352697731
  C         3.9213897788        9.8450866896        6.8168262189
  H         5.0028031795       10.7517412842        8.4347166753
  H         5.4400652104       11.2064107789        6.8228017607
  C         2.8080777153       10.8609641556        6.7186223563
  H         3.5127983510        9.1305808584        7.5011960948
  H         4.1802528700        9.3154494921        5.9746119161
  C         3.1537007012       12.2032886391        6.1260067120
  C         2.4059963966       11.5235211480        8.0167933700
  C         1.6395113149       10.1247802218        5.9651093715
  C         2.8534182242       13.2542507779        6.9123955473
  C         3.8918344741       12.5532687954        4.9596803936
  C         2.3646149299       12.8707137138        8.1732975161
  C         2.0138712474       10.8679515922        9.1995296571
  H         1.9489995485        9.8532591471        5.0402233419
  H         1.5426748867        9.1740423285        6.4391421634
  C         0.3932616874       10.9317915412        5.7255664832
  S         3.2019332110       14.7692604409        6.1572190784
  C         3.8347847946       13.8847274494        4.7261578312
  H         4.2465702906       11.8680620851        4.2483735261
  C         1.9556033600       13.4844858166        9.3191778358
  H         2.0235610552        9.8055099388        9.1842605375
  C         1.6149185614       11.4909176627       10.3730726741
  H         0.5585179127       11.9299652912        5.3718005987
  H        -0.0718650888       11.0923439056        6.7125386540
  C        -0.7324841845       10.2139896984        4.9125944325
  C         4.2522029636       14.5194228160        3.4973726122
  C         1.6066362977       12.8334302355       10.5104299201
  H         1.9413548316       14.5359957252        9.4131721200
  C         1.1153830853       11.0936542791       11.5693598780
  H        -1.7045411529       10.7120292055        4.9648009573
  H        -0.9158401786        9.2932190423        5.4588300330
  C        -0.3087422623        9.8715733396        3.4771685027
  C         4.2713683929       15.8740939985        3.2301367220
  C         4.7955255946       13.7281624150        2.3612918951
  C         1.2499396309       13.5171885639       11.7771305580
  C         0.9932257229       12.1735831279       12.4297966280
  S         0.7830530474        9.5432974894       12.3251683131
  H         0.4264037789        9.0772697328        3.3652485446
  H         0.2654626401       10.7328588706        3.1427523333
  C        -1.6134206666        9.8281657096        2.5713245771
  N         3.8558236446       16.8652985090        4.1922408390
  C         4.5116381853       16.4364624937        1.9966270868
  C         5.2113521839       14.2836678487        1.1870535408
  H         4.9727524055       12.6713897573        2.4904527506
  C        -0.0473714980       14.4393121430       11.6597267131
  C         2.5096705387       14.1890462806       12.3498397639
  C         0.5476298339       11.7011773716       13.6796134123
  C         0.4898271559       10.3164814739       13.8084358583
  H        -2.4038012301        9.1766938476        3.1140178216
  H        -1.9029393012       10.9081193901        2.4283827421
  C        -1.4401353115        9.1604394010        1.2576739402
  S         3.7633925430       18.3069869341        3.4070336020
  N         4.2475560501       17.8024615690        1.8863641739
  C         4.9421537904       15.7157494284        0.8845057664
  H         5.4897437970       13.6144667024        0.3864376562
  H         0.0659998883       15.2963009110       11.0354396778
  H        -0.1937234859       14.8329520391       12.6303039113
  C        -1.2703855418       13.6297658046       11.3919308805
  H         3.0279187014       14.6494145877       11.5475156399
  H         2.2515833026       14.9862629659       12.9905387916
  C         3.4997883019       13.1953527487       13.0974283266
  H         0.3632090351       12.4275134252       14.4524359031
  C         0.1835728536        9.5965500909       15.0637917962
  H        -2.3877903016        8.6842877373        1.0481477288
  H        -0.7209689489        8.3465756364        1.3824120650
  C        -1.1230879589       10.1996601910        0.1011457569
  C         5.1517911995       16.3545576457       -0.3757931006
  H        -1.0802652847       13.1417248827       10.4417662011
  H        -1.4700545028       12.9168906613       12.1599581793
  C        -2.4688268154       14.6049052490       11.3070242725
  H         3.8127318257       12.3906086127       12.4123789350
  H         3.0274068617       12.7239919021       14.0417446953
  C         4.7741808099       13.9782294852       13.4447733973
  C         0.2186171380        8.1958253040       15.2715988514
  C        -0.0057240637       10.3866004800       16.3139561079
  H        -2.0850906243       10.7914451004       -0.1076444877
  H        -0.3577352379       10.9111404910        0.4395558828
  C        -0.6196097165        9.6136375191       -1.1240527146
  H         5.2367925106       17.3951622574       -0.2720362025
  C         5.3983939307       15.8644342172       -1.6167420696
  H        -2.4356372167       15.1406204178       10.3804578775
  H        -2.4110466893       15.2512359763       12.1498602816
  C        -3.6703340089       13.7325172836       11.6044612170
  H         5.2523605165       14.1719473942       12.5122628582
  H         4.5539208248       14.9971018511       13.8158081140
  C         5.7427381302       13.1504080945       14.2411881255
  N         0.5841432635        7.2369270524       14.3319962678
  C        -0.1846902851        7.5975293591       16.4617522070
  C        -0.3131381650        9.7814514367       17.5912650066
  H         0.0030385660       11.4585291182       16.2560321506
  H        -0.8624807884       10.2688515718       -1.9242336409
  H        -0.9803400954        8.5695558759       -1.3399665012
  H         0.4203839448        9.5284744004       -1.0301450918
  S         5.9433024581       14.2748620857       -2.0284341880
  C         5.4942904254       16.8365927785       -2.7205536839
  H        -3.5518807486       12.7272051926       11.1387407044
  H        -3.9631542031       13.6923208971       12.6069642512
  C        -4.9288116153       14.2109241248       10.8856206724
  H         5.9194610343       12.2506274001       13.5999126296
  H         5.3109646590       12.9475912212       15.2009960128
  C         7.1816985716       13.7106604341       14.3794514680
  S         0.4440684438        5.7818203198       14.9744549663
  N        -0.1397522631        6.2021526150       16.4142691382
  C        -0.4755085247        8.3409241447       17.6198222511
  H        -0.2465104512       10.4225184468       18.5303119903
  C         6.0585569685       14.7881385784       -3.7123876583
  N         5.9592862934       16.1540281007       -3.8364893487
  O         5.2912513746       18.0419349833       -2.5391461444
  H        -5.7561268006       13.9122758845       11.5755309941
  H        -4.7761087478       15.3371470156       10.8800049111
  C        -5.2504119390       13.4992468970        9.5010108103
  H         7.7698995289       13.0070794350       15.0097314425
  H         7.6829913294       13.8395826558       13.4338002450
  C         7.1764380777       15.0497004530       15.1670729092
  C        -0.7763802619        7.6148013009       18.8761551223
  S         6.4282623993       13.8412368750       -5.0815728839
  C         6.0307805684       16.9659938020       -5.0295449172
  H        -4.6257724949       13.7461488207        8.6888938927
  H        -5.1472098738       12.4264343982        9.5909687279
  C        -6.6644659620       13.8093110915        8.9786731624
  H         7.4388997368       14.9578341478       16.2306388347
  H         6.1013735847       15.3928879476       15.0131203039
  C         8.0997648553       15.9921716712       14.4704495666
  H        -0.5350769401        6.5524630616       18.7801929293
  C        -1.2292855516        7.9927775539       20.0755356474
  H         6.5785589768       16.5112359340       -5.7946953171
  H         6.6238718069       17.8415290752       -4.8382061332
  C         4.6393839496       17.2971626313       -5.5715677677
  H        -7.0286478264       12.9275209595        8.4057018212
  H        -6.6355711555       14.7332651450        8.4738738409
  C        -7.7446569884       13.7667976038       10.0671761751
  H         8.4679024634       16.7783620656       15.1639515536
  H         9.0583595962       15.5092811172       14.1220022461
  C         7.4415723023       16.5363509339       13.1931316833
  S        -1.6213100578        9.5639870300       20.5486317382
  C        -1.3770485230        6.9477768898       21.1092296754
  H         4.2489905933       18.1146762185       -5.0297680873
  H         3.9073230213       16.3664103672       -5.5250504059
  H         4.5330960608       17.5787912142       -6.6529675167
  H        -7.6631076791       14.5921561840       10.7541320641
  H        -8.7607770702       13.7214125320        9.7451087055
  H        -7.6179781330       12.9052181490       10.6927776116
  H         7.9529327230       17.4916294632       12.9865360181
  H         7.6609273603       15.8735451615       12.3767832457
  H         6.3207024674       16.7784618194       13.3079469772
  C        -2.1428094442        8.8159258969       22.0911627667
  N        -2.0324396138        7.4381927998       22.1619415944
  O        -1.0442499661        5.7527108372       20.9797405078
  S        -2.5324632336        9.6614417963       23.6283340570
  C        -2.2917417378        6.5956378846       23.2947334989
  H        -2.6241743863        5.6190755544       22.8027100400
  H        -3.1129955718        6.9119726331       23.9523106933
  C        -1.0096716629        6.4723182862       24.1147063427
  H        -1.0274600107        7.2786465729       24.9070369163
  H        -0.1124576951        6.4968411840       23.5133272195
  H        -1.0686761329        5.6088411048       24.6849948367
