352
i =
  H        -3.7534596023       14.3384530986       16.3480146187
  C        -3.0351802154       13.5372459314       16.3131829139
  H        -3.5643029622       12.5653110850       16.5159946541
  C        -1.9708836996       13.7741113840       17.3736620476
  C        -2.3608327493       13.3583074392       14.9545693369
  C        -2.4518435247       13.4935383174       18.7192249007
  H        -1.0642133197       13.2275668699       17.1009879952
  H        -1.7360187638       14.8780490290       17.4146251389
  H        -1.4277117909       12.7408561613       15.0502623732
  H        -2.9384948975       12.8285833255       14.3088056598
  H        -2.1043602503       14.3253756457       14.4974408043
  C        -1.3138332497       13.5559244407       19.7635776497
  H        -2.9531853363       12.5204734137       18.8062382233
  H        -3.1950105572       14.2556535286       18.9300390315
  C        -1.9526380608       13.4949327734       21.1692519609
  H        -0.5360968060       12.7922337149       19.5072502826
  H        -0.8434835499       14.5335509824       19.7009534141
  C        -1.0170072228       12.9211768955       22.1342351941
  H        -2.8255018108       12.8918830995       21.1740715985
  H        -2.0835800336       14.5200298509       21.5339895271
  C         0.1925630848       13.7621769250       22.4294052006
  H        -1.5416500663       12.6200198877       23.0521225981
  H        -0.6723636566       12.0176125343       21.7158000568
  C         1.2661433050       13.0074440654       23.2380935104
  H         0.6245249638       14.0332582295       21.4596605277
  H        -0.0621775351       14.6312139951       23.0097805752
  C         1.5022989164       11.6681080341       22.5627104902
  C         0.7893967303       12.2870803370       24.5265787018
  C         2.6406058008       13.7525665548       23.3657067622
  C         1.2121634679       10.5423503330       23.3190526796
  C         2.0990135464       11.2455103131       21.3543885893
  C         0.7919601565       10.9287393658       24.5619805882
  C         0.3407090401       12.8576103285       25.7041304681
  H         2.8393483537       14.3109661805       22.4640569700
  H         2.5899912337       14.4636498229       24.1959832673
  C         3.7854470930       12.9516401646       23.9587249332
  S         1.5343761548        9.0610973095       22.5181706708
  C         2.1974747546        9.9123282598       21.1917068277
  H         2.4888344125       11.9411975337       20.5753431136
  C         0.3102901254       10.2641036653       25.6878949692
  H         0.4524048812       13.8929675260       25.8691454772
  C        -0.0503059900       12.2145611870       26.8656435178
  H         4.0066375283       12.0827687477       23.2965932790
  H         3.4989561451       12.5272728197       24.9640390146
  C         5.0837170531       13.6838275191       24.2395538953
  C         2.5855145888        9.2265143579       19.8939276497
  C        -0.1235305093       10.8656198153       26.8971241113
  H         0.4558807973        9.1514539012       25.5797249432
  C        -0.5142946873       12.6627835307       28.0868910421
  H         5.6972927998       13.1012513709       24.9768430175
  H         4.8366258666       14.6437532097       24.8159501176
  C         5.9388389692       13.9740475682       22.9508560954
  C         2.5174885246        7.7683044491       19.6153804047
  C         3.1081288556        9.9761126573       18.7386138784
  C        -0.5054076891       10.1914689466       28.1876378658
  C        -0.8306348157       11.5881293810       28.8545423068
  S        -0.8875159057       14.2298284874       28.8468395941
  H         6.6438355631       14.7873001102       23.2685008372
  H         5.3144901963       14.4702101668       22.2988863235
  C         6.7636288043       12.7861706674       22.5266991824
  N         2.0657793724        6.8141687469       20.5050965108
  C         2.7280709325        7.1807216283       18.3998369172
  C         3.4679286371        9.4001822309       17.4936493005
  H         3.1885351504       10.9899338861       18.9845311559
  C         0.6746285245        9.4108047450       28.8554915676
  C        -1.7849315752        9.3546973120       28.0028159654
  C        -1.1800342119       11.9645047107       30.1960449677
  C        -1.2334956548       13.3293597767       30.2799925207
  H         7.6416149334       13.2299594248       22.1095538005
  H         7.2773637488       12.1458300638       23.3170933226
  C         6.1808467970       11.9690186593       21.3821345978
  S         2.0489565166        5.3467273769       19.8567729694
  N         2.5373545754        5.8313302891       18.4060754463
  C         3.2805147867        7.9194469248       17.2530190993
  H         3.7722608395       10.1504835089       16.7350131245
  H         1.0426393557        8.6989656464       28.0893985547
  H         0.2087376207        8.8474966564       29.6573550477
  C         1.8183355273       10.2457380744       29.3425201343
  H        -1.6111716568        8.6288877826       27.2144569634
  H        -1.9585479331        8.8028472880       28.9114024106
  C        -3.0936888295       10.0228757267       27.6651601513
  H        -1.4945421547       11.2152489794       30.9148693110
  C        -1.6970451153       14.0854643211       31.5239923374
  H         5.3017127879       11.3513904382       21.7577986682
  H         6.9085708998       11.1881046199       21.0804546233
  C         5.8974890559       12.7881981160       20.1068464540
  C         3.6389824614        7.1625742369       16.0603348688
  H         2.1200674908       10.7776019939       28.5175673583
  H         1.3354134101       10.9576567464       29.9619635780
  C         2.9686117173        9.4334094173       29.8967833850
  H        -2.9000444884       10.8238686691       26.9568324151
  H        -3.2728346921       10.5808682779       28.5630090088
  C        -4.2684112755        9.2606820766       27.1193271163
  C        -1.7301508134       15.5044253130       31.6341287000
  C        -2.0478442808       13.3124136293       32.7388180868
  H         5.4326596972       12.0438261727       19.4704196417
  H         5.0532699087       13.4638488234       20.3261278472
  C         7.0712423439       13.4047239957       19.3306421753
  H         3.5219697753        6.0669203228       16.0982053705
  C         3.9915746639        7.5446331175       14.7869732166
  H         3.4015833958        8.9070680339       29.0670986984
  H         2.4968767329        8.6927997118       30.5360624587
  C         4.0229134284       10.2014804316       30.7052115611
  H        -4.0859194935        8.7247998157       26.2012480827
  H        -4.5427438847        8.5433498437       27.8098589346
  C        -5.3603952776       10.2778032841       26.6699197469
  N        -1.6165849534       16.4038496636       30.5941397888
  C        -2.0809880453       16.2091219531       32.8096144285
  C        -2.4334442980       13.9678809569       33.9304734132
  H        -2.1934213306       12.2434449620       32.6595365229
  H         6.7173918003       14.0054857968       18.4924334773
  H         7.6900694494       14.0017597780       19.9939997817
  H         7.8192487998       12.6809877291       19.0141404603
  S         4.2785432821        9.1114161101       14.2783244874
  C         3.8123932488        6.5788659340       13.6840270742
  H         4.2202957942       11.0885566267       30.1131405321
  H         3.6934356071       10.3256650413       31.7169506782
  C         5.3545673767        9.3641548052       30.8558601033
  H        -4.9221623273       11.0908157827       26.1262767213
  H        -5.6890556703       10.7933299515       27.5960016952
  C        -6.4705233773        9.5774824848       25.8908159487
  S        -1.6331671418       17.9171516197       31.1164210955
  N        -2.1101937867       17.5587035239       32.6136620638
  C        -2.4342113848       15.5036665116       34.0152291029
  H        -2.7218286151       13.3647707126       34.8280563298
  C         4.5262307964        8.4625057889       12.6764835096
  N         4.2534474664        7.1583871234       12.5523529005
  O         3.6587940702        5.3680227891       13.8025221121
  H         6.0431423304       10.0506690322       31.3373630967
  H         5.7021085694        9.2043517919       29.8175360750
  C         5.2222227904        8.1231000061       31.7598747113
  H        -6.0139286098        8.9774830529       25.1174013844
  H        -7.1355927055        8.8296843786       26.3782828999
  C        -7.4672051698       10.5811180542       25.2184639205
  C        -2.6812034407       16.3043282024       35.1606212682
  S         4.9387340013        9.3128598340       11.1336475527
  C         4.2841605976        6.4308703126       11.2660639037
  H         5.8822158787        8.2082182855       32.6076331143
  H         4.2284740695        8.0536071855       32.1556051254
  C         5.4173033857        6.7804425895       31.0291681444
  H        -7.0216445233       11.2493808914       24.5020090926
  H        -7.6949264907       11.2843331913       25.9923761047
  C        -8.6519307820        9.9011107706       24.6349700645
  H        -2.5703061273       17.3202258992       34.9582786456
  C        -3.0397479177       16.0064553690       36.4662692549
  H         5.1319439735        6.6133335810       10.6755379266
  H         4.2044286755        5.3389632325       11.4507901240
  C         2.9931533312        6.5806943502       10.5624418227
  H         4.6793750113        6.5871382577       30.1864244804
  H         5.0867864812        6.0918549363       31.8098422914
  C         6.8322957056        6.5262327440       30.5884074990
  H        -9.0231934651       10.4644468137       23.7690053204
  H        -8.5614108403        8.8321435860       24.3954812346
  C        -9.8057477835        9.9158768910       25.6361864461
  S        -3.4174707221       14.4890923625       37.0512003999
  C        -3.1564595594       17.1263332230       37.3648476446
  H         3.0896574921        7.2001470137        9.7001555103
  H         2.6190994373        5.6596808170       10.2581930485
  H         2.2670624227        7.0159513334       11.2286116110
  H         6.9314359365        6.9619917275       29.5173453120
  H         7.1041612303        5.4737926196       30.3846633760
  H         7.5715591723        6.9055317586       31.2377873107
  H       -10.0652828520       10.9595233670       25.6437933027
  H        -9.4475222261        9.6048254796       26.5977958130
  H       -10.6929646593        9.2521083959       25.4890903539
  C        -3.7331446223       15.3703744503       38.5375355907
  N        -3.5515503698       16.6931817712       38.5455292305
  O        -2.8669588264       18.2917609076       37.0390725221
  S        -4.3857972115       14.6447649751       39.9963969167
  C        -3.5313855449       17.5687623523       39.7823425072
  H        -3.6852085307       18.5629879215       39.3106890783
  H        -4.3007436236       17.2662460185       40.5595622744
  C        -2.1841007781       17.5876742480       40.5197584708
  H        -1.9874676066       16.7941326112       41.2954501073
  H        -1.4794610592       17.3188546662       39.7483451561
  H        -1.7918456866       18.5328968852       40.9403330731
  H         7.7055243081       11.4839271482        2.9840133924
  C         8.0597644475       10.4940101899        3.1143767279
  H         7.2200195206        9.8185650813        3.2350689800
  C         8.9545476833       10.3337022854        4.3631717980
  C         8.8234394222       10.1518264913        1.8618990957
  C         8.2440668245       10.6407100320        5.6962755735
  H         9.3076786193        9.2527970027        4.2789821285
  H         9.8922852885       10.8926258574        4.2637849083
  H         9.6033207357       10.8770657264        1.6114264216
  H         8.1789567817       10.2608971314        0.9772357997
  H         9.3295521149        9.1396485585        1.9811017139
  C         7.6176064651        9.3497013322        6.3765326913
  H         8.9828948897       11.0814265577        6.4357651492
  H         7.4024007429       11.3834251497        5.5207185414
  C         7.0532722946        9.7014560222        7.7273381188
  H         8.3458589789        8.5387567995        6.5865485578
  H         6.7958695196        8.8728545412        5.7372740851
  C         5.6807848889       10.2969369054        7.5404274597
  H         7.7670907382       10.3975484715        8.1765190773
  H         7.0607723212        8.8939967607        8.4566571448
  C         4.4500297304        9.4665941117        7.0649671124
  H         5.3395927928       10.8631171285        8.4319077438
  H         5.8589165959       11.0189963168        6.7238608365
  C         3.1312761646       10.3328119716        6.9908759277
  H         4.1725639075        8.6426577361        7.8194376481
  H         4.6218857725        9.0063373029        6.0930455763
  C         3.4610506763       11.6464035290        6.2912363620
  C         2.7623090870       10.9816849637        8.2666718918
  C         2.0227594448        9.5532064018        6.2191449325
  C         3.2886240118       12.7542278388        7.1431190287
  C         3.8783691386       12.0435313538        4.9777395715
  C         2.7493315375       12.3654776929        8.3341143681
  C         2.3691653911       10.3966040875        9.4163586005
  H         2.3265006569        8.9996971868        5.3069935193
  H         1.6131454941        8.8741389569        6.9925682186
  C         0.8121654697       10.5142848078        5.8437622802
  S         3.7239633585       14.2211629476        6.3675541959
  C         4.0664975801       13.4041450811        4.9096071527
  H         4.0254890883       11.3069995833        4.2594182743
  C         2.3599334406       13.0178246572        9.4806548058
  H         2.2968857268        9.3159768180        9.4191245228
  C         1.9082852877       11.0456311638       10.5569596169
  H         1.0479361987       11.4193040700        5.2039247825
  H         0.3844092802       10.7804505299        6.7682016122
  C        -0.2574016697        9.8601798236        5.0217078124
  C         4.5102302533       14.1128530522        3.6651229303
  C         1.9321906826       12.4012608217       10.6442460461
  H         2.3937074416       14.0783131048        9.4371534144
  C         1.4416208887       10.6732279225       11.7880998418
  H        -1.1556646848       10.3908483349        4.9385498305
  H        -0.4467092745        8.9941145842        5.6694297640
  C         0.1879544635        9.4037464094        3.6153385003
  C         4.4566530331       15.4671273610        3.4108956562
  C         5.0223023068       13.2784417167        2.5180150751
  C         1.5108806261       13.0614495489       11.8647793024
  C         1.2192864114       11.7301158771       12.5859813900
  S         1.2463341560        9.1364733830       12.5038896657
  H         0.2692147616        8.3626938399        3.6285652806
  H         1.0791233465        9.9230621001        3.4528728245
  C        -0.7896540685        9.7383974535        2.4904402558
  N         3.9784920234       16.4147684411        4.3874334368
  C         4.7390457174       16.0891080618        2.1633483669
  C         5.4200984593       13.9139126539        1.3392088083
  H         5.0910480481       12.1989428563        2.5974095361
  C         0.1905752558       13.9135067883       11.7274023780
  C         2.6411994929       13.9028775704       12.6548050774
  C         0.8443111694       11.2924435462       13.8827297690
  C         0.8268128544        9.9175703417       13.9734999112
  H        -1.4577221548        8.8984211821        2.3970054119
  H        -1.4611087856       10.5515987400        2.8359399217
  C        -0.2267393158       10.1128449125        1.1422940281
  S         4.1043962206       17.9100346112        3.6760865831
  N         4.5840796795       17.4840212138        2.1719650377
  C         5.1435353991       15.3581126028        1.0225307040
  H         6.0231058009       13.3105196681        0.6530622911
  H         0.4219007137       14.7445419848       11.0179055422
  H        -0.1278260634       14.4302331776       12.6785220696
  C        -1.0150112099       13.1035995413       11.1721736657
  H         2.9500076610       14.6450773445       11.8990951723
  H         2.0594751630       14.4504615163       13.3980339254
  C         3.8638935821       13.2098962646       13.3133940208
  H         0.6150999294       12.0782592092       14.5768066492
  C         0.3670090475        9.1895315104       15.2518612804
  H         0.6273626365        9.3984238230        1.0039579016
  H         0.2316528213       11.1475178140        1.0980678800
  C        -1.3049419148        9.8911861930       -0.0114494988
  C         5.3646320340       16.0046538878       -0.2226732883
  H        -0.7360600283       12.4303884847       10.3172254075
  H        -1.4086831992       12.4055944450       11.9534595165
  C        -2.1163692983       14.0255061314       10.7200589798
  H         4.2832150735       12.4271191044       12.6585871304
  H         3.3671872714       12.5783730804       14.0726504234
  C         4.9015047690       14.2292165685       13.8274256220
  C         0.2214173655        7.7698174395       15.4308053554
  C         0.2135643303        9.9872541968       16.4576464829
  H        -1.6340040688        8.9131188460        0.0982927350
  H        -2.2197562324       10.4649052039        0.1272773844
  C        -0.7231383528        9.9926391627       -1.4005155908
  H         5.1619306597       17.0434842799       -0.2309292434
  C         5.6978075048       15.5584339913       -1.4632784925
  H        -1.6598946018       14.7722165103       10.1204884292
  H        -2.5556385418       14.4611515376       11.5866635310
  C        -3.1510893666       13.4023392820        9.8205434755
  H         5.1168325734       14.9198885674       12.9986691079
  H         4.4749653423       14.8041557278       14.5861363324
  C         6.0908424304       13.4577078344       14.4021808082
  N         0.4985016608        6.8396694468       14.4254066011
  C        -0.0782605268        7.1556205935       16.6262352003
  C        -0.2084093424        9.4070365368       17.6425136288
  H         0.5084345231       10.9834392263       16.3779418525
  H         0.2445785047        9.5945654987       -1.5273559441
  H        -0.8008065672       11.0327349252       -1.7451897892
  H        -1.2510692575        9.3490408228       -2.1162571358
  S         5.8900353349       13.9504032655       -1.9291548685
  C         5.8273916145       16.5695751430       -2.5455075598
  H        -3.5313090194       14.0515066616        9.0740080998
  H        -2.7166235535       12.5112773297        9.3444456891
  C        -4.3928122825       13.0598920531       10.7395202150
  H         6.7281767071       13.1309267104       13.5412804624
  H         5.8493579679       12.4862187061       14.8906736353
  C         6.9335168133       14.2819139199       15.3953466868
  S         0.2770048118        5.3316020918       15.0520102622
  N        -0.1844236243        5.7959357144       16.5209606634
  C        -0.4333362384        7.9268128209       17.8181854728
  H        -0.2973503262       10.0520772981       18.4805106373
  C         6.0684232334       14.5429995725       -3.5691842467
  N         6.0758622625       15.9111399731       -3.7180658872
  O         5.6750979929       17.7990773293       -2.3619352093
  H        -4.0498007536       12.5407823076       11.6378786371
  H        -4.8101499831       13.9448780170       11.1657989508
  C        -5.5382422594       12.4249755433       10.0008896681
  H         6.2815631484       14.5441095724       16.2151405702
  H         7.7962887963       13.7439878880       15.7782685908
  C         7.4680420943       15.6029509575       14.8400972116
  C        -0.7908175239        7.2478693248       19.0231346046
  S         6.5770381792       13.5289272334       -4.8726063447
  C         6.1858619183       16.6309987127       -5.0497523694
  H        -5.2247490547       11.5081074357        9.5733300045
  H        -6.2255039851       11.9927955737       10.7243517860
  C        -6.2859573833       13.3629838443        9.0365932708
  H         6.6824839431       15.8775027635       14.1817889549
  H         8.2787714504       15.6046643543       14.1354181095
  C         7.7159703822       16.7228423056       15.9022466547
  H        -0.5608750044        6.1997722166       19.0443005882
  C        -1.2187324942        7.7193528309       20.2433697312
  H         6.9558311700       16.0594082608       -5.6509336999
  H         6.5458660478       17.6315681072       -4.8556571163
  C         4.7970967444       16.6790320731       -5.6702837650
  H        -6.7033575033       12.8343180966        8.2441732820
  H        -5.6175305384       14.1174305211        8.5044743119
  C        -7.5245792792       13.9635278844        9.6708253173
  H         6.7395387391       17.0351106427       16.2168080133
  H         8.2336717439       16.4760673555       16.8686360760
  C         8.3998666220       17.8946290341       15.2771659665
  S        -1.4841866954        9.3439652432       20.7005473302
  C        -1.5265434079        6.7695446140       21.3169834154
  H         4.5698740121       15.6691577383       -6.0536902222
  H         4.6987189246       17.3821834277       -6.4679863430
  H         4.0519394215       17.1374021134       -5.0304377108
  H        -8.0651234960       14.5248554785        8.9180804438
  H        -8.2634933788       13.2124588668       10.0685810262
  H        -7.1997456423       14.6756209820       10.4520598476
  H         8.0236938071       17.8931997248       14.2672852932
  H         8.0086492765       18.8080753818       15.7948193379
  H         9.4996491385       17.7662499532       15.3565555699
  C        -2.1077505754        8.6985098247       22.2173364071
  N        -2.1270732281        7.3432950130       22.3238960932
  O        -1.3820762150        5.5616523761       21.2084807792
  S        -2.7058611785        9.6692537940       23.5696617767
  C        -2.4598968880        6.6368318046       23.5253677589
  H        -2.7170747615        5.6861971677       23.1059536168
  H        -3.3874332414        6.9522318233       24.0480317670
  C        -1.1778231571        6.4795984198       24.4809013400
  H        -0.9542633559        7.4830916912       24.9541717313
  H        -0.2628508705        6.2868365589       23.8890036139
  H        -1.2596793688        5.6840224777       25.2445723201
