352
i =
  H        -3.3423634141       15.2256185188       16.2605849262
  C        -2.9985550014       14.2638989090       16.2183051044
  H        -3.8293654734       13.6180642773       16.3972452432
  C        -2.0276491512       13.8111184503       17.3604046962
  C        -2.4366306876       13.9859203560       14.8511801361
  C        -2.5050717368       14.2597162470       18.7288956850
  H        -1.8610901708       12.7063584732       17.2205897197
  H        -1.0815351334       14.2450207861       17.1900822386
  H        -1.5653309441       14.6748449324       14.6214114983
  H        -2.0216422112       12.9466131181       14.7410840140
  H        -3.2440422359       14.0631478352       14.1484476501
  C        -2.1017027900       13.2858108844       19.8519118965
  H        -3.5869576311       14.5797294797       18.6989845683
  H        -2.0169056832       15.2072847623       18.9327811435
  C        -2.2712250941       13.6144939375       21.3455808886
  H        -2.5149446155       12.2525902830       19.6893808020
  H        -1.0266654765       13.3809959839       19.6549542308
  C        -1.1769315595       12.9342877682       22.1583129755
  H        -3.1699003617       13.1682093145       21.8374451635
  H        -2.3613832421       14.6422151652       21.6055935705
  C         0.0141413901       13.8258492049       22.5349722359
  H        -1.6366967276       12.4389097841       23.0395844967
  H        -0.9236986985       12.0875712665       21.5406079998
  C         1.1388144308       13.1161930868       23.3430142112
  H         0.4091865330       14.0745998433       21.5835569900
  H        -0.1683613512       14.7333133416       23.0864690493
  C         1.4674070394       11.7813200592       22.6287293907
  C         0.6170418200       12.4038811533       24.5341938621
  C         2.2861953906       14.0755449203       23.5685562222
  C         1.1525604226       10.6532808559       23.3486885614
  C         2.0575188724       11.3808225157       21.4050294816
  C         0.6559033457       11.0378921618       24.5826466051
  C         0.3206957824       12.9739567454       25.7674916994
  H         2.3564657910       14.6214560980       22.6529322269
  H         1.9582781581       14.9374906337       24.1720563120
  C         3.6350133765       13.4378958645       23.9895481697
  S         1.4196418807        9.1521043846       22.4950438623
  C         2.1166677435       10.0539347394       21.1882644577
  H         2.3589398229       12.1529429143       20.6862811456
  C         0.2795234112       10.3973500694       25.7222783670
  H         0.3736423367       14.0555978628       25.8274825648
  C        -0.0915254285       12.3085813771       26.9040313578
  H         3.8396265136       12.6254382628       23.2853789393
  H         3.5114444487       12.9027617808       24.9536787745
  C         4.7961553946       14.4322785781       23.9824570170
  C         2.5573660106        9.3614585539       19.8940771150
  C        -0.1416760759       11.0185031117       26.9628182250
  H         0.2578799548        9.2877425054       25.6172162582
  C        -0.3935854935       12.7152663376       28.1364691582
  H         5.5879045010       14.1952300972       24.6779653279
  H         4.3564822566       15.3432788073       24.4393875331
  C         5.2422497983       14.7667410095       22.5890907748
  C         2.5465367306        7.9722427951       19.6903087333
  C         3.0574405993       10.1607134412       18.7948437808
  C        -0.5360339092       10.3282912782       28.2455629281
  C        -0.7456180941       11.6531303201       28.9582155091
  S        -0.6758794154       14.2743621125       28.8265043458
  H         5.8513938400       15.7013910226       22.6219914432
  H         4.4190332939       14.8841147258       21.9338747976
  C         6.1603575511       13.7978892221       22.0086414468
  N         2.2151163471        7.0907557665       20.6627605595
  C         2.8228241494        7.4178634028       18.4784140022
  C         3.3244978684        9.5859153659       17.5787048326
  H         3.2142107075       11.1977977172       18.8811310695
  C         0.5240096573        9.5002164986       29.0217901935
  C        -1.8623707356        9.4938837647       28.1872640423
  C        -1.1329986342       12.1193663377       30.2228538076
  C        -1.0552961565       13.4744092284       30.3142643691
  H         7.2206774935       14.0300235030       22.2385406341
  H         6.0048970254       12.8483922702       22.4175485538
  C         6.0903595034       13.7065516824       20.4766911589
  S         2.4627174175        5.5838497850       20.0282707046
  N         2.6483373122        6.0230131473       18.4588616881
  C         3.2056789810        8.1549661225       17.3700575646
  H         3.5436133502       10.2591550530       16.7215301964
  H         0.5198416140        8.5003861752       28.6282827383
  H         0.3154057400        9.3089403349       30.0668738015
  C         1.8805355370       10.1879942437       28.9723738692
  H        -1.6644603226        8.5917439480       27.6061610144
  H        -2.0475684878        9.1767054621       29.1885326056
  C        -3.0528339492       10.3587619452       27.7029231690
  H        -1.2602690836       11.3876359348       30.9652457675
  C        -1.4925195056       14.2655624560       31.5329966305
  H         5.6484499347       14.5970805599       20.0114816412
  H         5.6861228228       12.7362867693       20.1158818476
  C         7.5135567022       13.4519024232       19.8476579200
  C         3.4250701336        7.4981042895       16.1315839152
  H         2.3422489306       10.0840263643       28.0391410647
  H         1.8961218438       11.2779380889       29.2018167719
  C         2.9003732131        9.3994336031       29.8614628903
  H        -2.9429739280       11.0516802068       26.8218915774
  H        -3.4074422231       11.0565091940       28.4515768997
  C        -4.2584332461        9.5019911313       27.2170624984
  C        -1.4245824906       15.6754516517       31.6088147017
  C        -1.7899546930       13.6222195091       32.8672056055
  H         8.3680842713       14.0631717066       20.2112116977
  H         7.7389859207       12.4328402890       20.1456736687
  C         7.6104704151       13.4319473173       18.3031923308
  H         3.0899015794        6.4708051122       16.0459570237
  C         3.8773159639        7.9587083622       14.9117712903
  H         2.6828905967        8.3262016544       29.7156023886
  H         2.7084897269        9.6865719044       30.9625449424
  C         4.2997696870        9.8349488068       29.6071657711
  H        -4.0335423520        8.6662141518       26.5069739280
  H        -4.6342387879        8.9890095660       28.0645936095
  C        -5.3949321113       10.3323525378       26.5567262417
  N        -1.2044621515       16.5573605204       30.5346521537
  C        -1.8859252141       16.4016006074       32.6820246212
  C        -2.1224839979       14.3745456905       34.0127391283
  H        -1.7561519915       12.5421109289       32.9223267586
  H         6.5858145892       13.3486878824       17.7707353944
  H         8.0214148425       14.3800076928       18.0497610347
  H         8.2447418397       12.6060748580       17.9988374816
  S         4.4658235972        9.5587335703       14.4401592200
  C         3.9339868304        6.9361471632       13.8307297255
  H         4.3933991406       10.3895366873       28.6565335563
  H         4.6609577522       10.5303193609       30.4107146645
  C         5.1799070299        8.6532214196       29.6286651608
  H        -5.0075192187       10.6308186813       25.6001766772
  H        -5.4926678657       11.2111746762       27.1784679209
  C        -6.7210847624        9.7585878848       26.4162718842
  S        -1.3819805642       18.1586022120       30.9327247538
  N        -1.7560193656       17.8402543912       32.5442969926
  C        -2.1988801324       15.8634367576       33.9859253031
  H        -2.2505424222       13.8374318459       34.8963494782
  C         4.4975131278        8.8828859380       12.8011709529
  N         4.3832526541        7.5343795348       12.7063135669
  O         3.6454566436        5.7068533439       13.9777374286
  H         6.1287356122        8.9910158111       29.3904570672
  H         4.8888675187        7.9744137400       28.8129716821
  C         5.2128971546        7.9192645557       31.0372581767
  H        -6.6321710884        8.6670706037       26.1124590047
  H        -7.1593190969        9.7227856908       27.3989272496
  C        -7.6082699957       10.5844936280       25.4690080862
  C        -2.4403708221       16.7219565803       35.0476253091
  S         5.0312487100        9.8605371491       11.4401532730
  C         4.3049214539        6.7643941472       11.4422558430
  H         5.8990880523        8.5507468430       31.6205201964
  H         4.2555996964        7.8724938130       31.5130216692
  C         5.8942020116        6.5727269607       30.9304005386
  H        -7.0182035282       10.8674548019       24.5801051163
  H        -7.8497863884       11.5025157639       25.9623271155
  C        -8.7245137323        9.8537395907       24.8533092674
  H        -2.1417865563       17.7667564011       34.8686761561
  C        -2.9737031007       16.3558512305       36.3123076353
  H         4.9394770224        7.2444833671       10.6751506640
  H         4.6158005093        5.7304909684       11.6554090420
  C         2.9194878455        6.6189892192       10.8436154275
  H         5.6452336645        6.2471530218       29.9133126762
  H         5.4505516443        5.8434270041       31.7089172666
  C         7.4149330698        6.5461967022       31.2234734721
  H        -8.8676691502       10.4070354679       23.8809886186
  H        -8.5197965231        8.8460911119       24.6829834922
  C        -9.9371972298        9.9730524170       25.7410570271
  S        -3.4536279219       14.8580737519       36.8913025682
  C        -2.9176042341       17.4228539342       37.2944184835
  H         2.9374762560        6.2980148234        9.8286153901
  H         2.2676383048        6.0122308483       11.4274068179
  H         2.4573406658        7.5970559398       10.8298942366
  H         7.7325592724        5.5665380881       31.1094729092
  H         7.8379573417        7.0369409104       32.1068191291
  H         8.0166997843        6.9758318613       30.3875728414
  H       -10.2574502275       10.9577234902       26.0120031408
  H        -9.7083274622        9.3996746252       26.6818597723
  H       -10.8070676592        9.4834565499       25.3657661126
  C        -3.6467419210       15.6793775557       38.4725510527
  N        -3.4343320062       17.0206058767       38.4545423309
  O        -2.4312053212       18.5167291674       37.1088134322
  S        -4.2274013820       14.9141828041       39.9054488480
  C        -3.6444236116       17.8267438828       39.6213814676
  H        -3.8365801410       18.8297465228       39.2679647903
  H        -4.6177524583       17.5201200528       40.0429904623
  C        -2.5286048727       17.5503179568       40.6399992040
  H        -2.3078483450       18.3963926165       41.2900340684
  H        -2.8030956646       16.7453001661       41.3094210744
  H        -1.6295760606       17.2871837877       40.1156201372
  H         7.6271084095       11.6386442453        3.6339210558
  C         8.3716240315       10.8134636457        3.7706273233
  H         7.8186471392        9.8654930550        3.9778292270
  C         9.2309761548       11.1330402262        5.0448020255
  C         9.2053001090       10.6661028680        2.5188315153
  C         8.4472690726       11.0726566523        6.3428722908
  H        10.1607635767       10.5781957608        5.0110468908
  H         9.5406494346       12.2097234824        4.8738811636
  H         8.5457514601       10.2291480915        1.7654831819
  H         9.9843346006        9.9429582470        2.6373760023
  H         9.7742532334       11.5408966130        2.2619543544
  C         7.8979178320        9.7378901770        6.5819120129
  H         9.1977019302       11.2545717531        7.0843587357
  H         7.7882689464       11.9510054794        6.5043198383
  C         7.1606333631        9.7254620791        7.8756919281
  H         8.7761062172        9.0751815933        6.7027052615
  H         7.1728768026        9.3576254113        5.8838169136
  C         5.7583267010       10.3383210422        7.8004061535
  H         7.8415048123       10.2380294676        8.6555402957
  H         7.0276184235        8.6610827756        8.1733009331
  C         4.7325508422        9.6083338897        6.8405533730
  H         5.3929861048       10.3688787601        8.8189666787
  H         5.7781640309       11.3923986506        7.5160230546
  C         3.4258571938       10.4156404829        6.8308703930
  H         4.6128077150        8.5736878289        7.0070043195
  H         5.0500586184        9.7291897216        5.7749543519
  C         3.6956820906       11.8133040153        6.1750207001
  C         3.0088219837       11.1231102194        8.1040096204
  C         2.2410034112        9.7294397711        6.0880444460
  C         3.4234846375       12.9184108764        6.9559672506
  C         4.1452434508       12.2346054942        4.9086551083
  C         3.0734764948       12.4635970335        8.1965533624
  C         2.4826724714       10.5862731160        9.3123550367
  H         2.4733868216        9.1209290900        5.1352116974
  H         1.7661690972        8.9948509721        6.7264486900
  C         1.0592425815       10.5863606547        5.7625783862
  S         3.7151832853       14.4755645974        6.2201558313
  C         4.2613904489       13.5932129728        4.8022100283
  H         4.4442811419       11.5299505748        4.1432701619
  C         2.7291577016       13.1437286688        9.3520933986
  H         2.3959090152        9.4870901083        9.1940644458
  C         2.1603017182       11.2114953292       10.4959362795
  H         1.4349619746       11.5326475937        5.3605656627
  H         0.6347273576       10.9138642475        6.7146318453
  C         0.0417168386        9.8980842252        4.8995281742
  C         4.6725039005       14.4020119552        3.5066546258
  C         2.2251208682       12.5762852331       10.5453829159
  H         2.7760190425       14.2355211132        9.2675658325
  C         1.6574884004       10.9425866796       11.7739094360
  H        -0.8417537611       10.5085527974        5.0124591190
  H        -0.1858568045        8.8889553966        5.2641395023
  C         0.2802596423        9.9782855851        3.3932707003
  C         4.5553694755       15.7990745667        3.2713309554
  C         5.1193727663       13.6419667632        2.3376613197
  C         1.8429220925       13.3763379669       11.7726753383
  C         1.4127035344       12.0675929308       12.5530767295
  S         1.2763851468        9.4570178966       12.5385760159
  H         1.0803743062        9.2445960695        3.1173275614
  H         0.7606912666       10.9298778896        3.1450413486
  C        -1.0596233599        9.8252095030        2.7094634035
  N         4.1942319478       16.6743224183        4.2794546532
  C         4.8072049448       16.4640343997        2.0584767257
  C         5.5232771124       14.3319759435        1.1522065046
  H         5.3194390642       12.6052375796        2.3436758432
  C         0.5420340437       14.2662699972       11.6567405236
  C         2.9643043296       14.1992222967       12.3461200752
  C         0.8915890616       11.6503548558       13.8413798467
  C         0.8074838156       10.2733713367       13.9265034472
  H        -1.8417967824        9.3619061418        3.3346794751
  H        -1.5015960364       10.7455747737        2.4961885387
  C        -0.8826308169        9.0710111655        1.3721466833
  S         4.0692047345       18.1888920996        3.6983309303
  N         4.6081338499       17.8256861333        2.1658818367
  C         5.4034951089       15.7615263334        0.9730411957
  H         5.9360744299       13.7400836804        0.3016785059
  H         0.8308230329       15.1211546370       11.0602887751
  H         0.1446752385       14.5996623206       12.5599795873
  C        -0.6954742825       13.5236328375       10.9793192917
  H         3.3105194928       14.9352434813       11.6523771737
  H         2.4793809263       14.8875300425       13.1049446857
  C         4.0817399634       13.3515748205       12.9661178727
  H         0.6163378020       12.2934551121       14.6874207192
  C         0.3389952642        9.4758442189       15.1009469980
  H        -1.7647304363        8.4715168294        1.0401358989
  H        -0.0734121190        8.3393433226        1.3639976217
  C        -0.5863847250       10.1085597311        0.2499502113
  C         5.7124291039       16.4960525356       -0.1549168257
  H        -0.4126831468       13.3097063915        9.9748433731
  H        -0.8442125959       12.6307226833       11.5061778573
  C        -1.9206265701       14.3145897257       10.8798082835
  H         4.5208147595       12.6327809535       12.3245940411
  H         3.7711083976       12.7760092662       13.7474133998
  C         5.1424247209       14.3527081682       13.5486660123
  C         0.2472714215        8.0892484901       15.2278204507
  C         0.0945257584       10.3355001940       16.3028267310
  H        -1.4548538943       10.4957052982       -0.1400670714
  H        -0.0731270522       10.9884813008        0.6532815420
  C         0.2174658410        9.5651485034       -0.8670039978
  H         5.7746300682       17.5480235290        0.0861300363
  C         5.9448648386       16.1825317890       -1.4585908035
  H        -1.8330947401       15.0763874750       10.1345945299
  H        -2.1125549952       14.9386934968       11.7706921116
  C        -3.1685169531       13.4064245676       10.7804291510
  H         5.7028793636       14.7808086243       12.6495504215
  H         4.7324603189       15.1911744603       14.0650985058
  C         6.2382609954       13.7156617415       14.3659565426
  N         0.4230146722        7.1991674523       14.2274357487
  C        -0.0376532323        7.5125784753       16.4138797646
  C        -0.2708111328        9.7069679839       17.4895445415
  H        -0.1949752216       11.3943419752       16.2311795513
  H         0.0941145105       10.1143219285       -1.8259688398
  H        -0.2099278979        8.6190863108       -0.9850969650
  H         1.3309730373        9.5174749497       -0.7962298017
  S         6.0906367575       14.6704190526       -2.2107181788
  C         5.8658050110       17.2958959817       -2.4000179507
  H        -2.9519915840       12.8509039416        9.9110461073
  H        -3.1991191680       12.7435019440       11.6631814705
  C        -4.3374549531       14.1777413058       10.3829184932
  H         6.4645028021       12.7469676668       13.9584028554
  H         5.8308840572       13.5626895199       15.4041188120
  C         7.5139089210       14.5904103865       14.3431117245
  S         0.2751569594        5.7011846347       14.8139805192
  N        -0.1575944780        6.1599257800       16.2802164549
  C        -0.2874613680        8.2204722388       17.5978176923
  H        -0.4351054227       10.2982157438       18.3077452128
  C         6.1009408782       15.5427837216       -3.8138749154
  N         6.0088352334       16.8771445491       -3.6764730313
  O         5.6416078150       18.4103242762       -1.9528225253
  H        -4.9842576854       14.3898978979       11.2344160997
  H        -4.0710766483       15.0512901791        9.7927832533
  C        -5.1152599971       13.4755222115        9.3258017243
  H         8.2655254097       13.9322223843       14.6252971204
  H         7.8657000753       14.9104989278       13.3698662745
  C         7.5108627463       15.7995067415       15.2464147979
  C        -0.6083387006        7.5476109460       18.7939910387
  S         6.3706269394       14.7140954031       -5.3197046406
  C         5.8017423434       17.8345351718       -4.7546770079
  H        -4.6719239811       13.4788569991        8.3086511420
  H        -5.3864756075       12.4402038270        9.6461307456
  C        -6.4427481473       14.0838005642        8.9412688514
  H         7.5803469018       15.3815740016       16.2103522739
  H         6.5692872231       16.3075493473       15.2949166576
  C         8.6014904591       16.8386670053       14.9990219833
  H        -0.2203980111        6.5402714941       18.7676546607
  C        -1.2907132012        7.8659139079       19.9943041050
  H         6.3256259565       17.5261038779       -5.5686308362
  H         6.1707654099       18.8140204986       -4.4952404015
  C         4.2800894082       17.9464814944       -4.9547612545
  H        -6.8028354054       13.4817767320        8.0696384420
  H        -6.3288246320       15.0742135528        8.5212228350
  C        -7.4353097859       14.1533715866       10.0783554896
  H         9.2076865957       16.8063192229       15.8863887138
  H         9.1686589301       16.3724237720       14.1858176336
  C         8.0558935585       18.1825357047       14.6652417636
  S        -2.0277425516        9.3400865480       20.6646541121
  C        -1.2225227896        6.7588666789       20.9796334177
  H         4.0453549562       18.8469218580       -5.5702820794
  H         3.5678742863       18.0922118135       -4.0477727743
  H         3.8046235896       17.2122364442       -5.6164522051
  H        -7.2300777745       14.8756073162       10.8874220374
  H        -8.3254346055       14.5556331900        9.6170756629
  H        -7.6957992237       13.1136105314       10.3687871445
  H         7.5030890453       18.0509706106       13.7272080556
  H         7.3770337894       18.4679965797       15.5000423330
  H         8.8247688642       18.9146381061       14.5535535838
  C        -2.1877819194        8.4169273008       22.1886494448
  N        -1.8925475339        7.1333671568       22.0638742240
  O        -0.7718185377        5.6468579687       20.7402829206
  S        -2.9391535840        8.8650224225       23.6499760349
  C        -2.0315742067        6.2117190440       23.1866106860
  H        -2.0645293313        5.1683665545       22.8514490989
  H        -3.0735178799        6.2418936749       23.5813167178
  C        -0.8774261023        6.3794717999       24.2677248597
  H        -0.1590296075        5.6052796112       24.2493140911
  H        -1.2068996726        6.5789222283       25.2721138735
  H        -0.3521979854        7.3514792227       23.9696093226
