352
i =
  H        -3.7642956333       14.7059606090       16.1627165575
  C        -3.1821927804       13.6859201791       16.2370466427
  H        -4.0841293908       13.0142236211       16.4358638718
  C        -2.1054442068       13.5775095490       17.2476912481
  C        -2.8039986930       13.3761029323       14.7768442227
  C        -2.8344538886       13.5859689539       18.6597397905
  H        -1.3331209544       12.8743867118       17.0732205119
  H        -1.4409434377       14.4473934538       16.9706194190
  H        -3.6730523311       13.3278669393       14.1281449426
  H        -2.0307863589       13.9420765679       14.3204618814
  H        -2.3108858916       12.3946191425       14.6453256355
  C        -1.7564119293       13.6445288510       19.7346757002
  H        -3.4253800714       12.6305817522       18.7271946007
  H        -3.5661967972       14.4770823500       18.6345381607
  C        -2.3553826580       13.4973791589       21.1756115762
  H        -0.9095382795       12.8532589686       19.7329916717
  H        -1.1524511409       14.6761529093       19.5790293655
  C        -1.3972770815       12.9301165604       22.2644781029
  H        -3.1510040805       12.8320473058       20.9411902687
  H        -2.6352349832       14.5192048394       21.5515143149
  C        -0.3275668746       13.9366672376       22.5983919234
  H        -2.0481888649       12.7372548868       23.1155306946
  H        -1.0913249762       11.8494373212       21.9718637524
  C         0.9278237131       13.2765585900       23.3050878133
  H         0.0728471919       14.5100729143       21.7793889112
  H        -0.8709409781       14.7493278741       23.1438353163
  C         1.2520423385       11.8233489158       22.5709737111
  C         0.5027602561       12.4920985164       24.4946613335
  C         2.1432304556       14.2128825606       23.4907965804
  C         1.0078957345       10.7431515663       23.3656268210
  C         1.7143987520       11.4755949589       21.3192151988
  C         0.5149199336       11.1695454186       24.5994886881
  C        -0.1058089557       13.1679854393       25.5760660175
  H         2.3952140602       14.8605929067       22.6225672056
  H         1.8602988607       14.8551500423       24.3995636907
  C         3.5354085946       13.4090521065       23.8313120721
  S         1.5226648398        9.2297424440       22.6198394152
  C         1.9766972557       10.1176483093       21.2270616271
  H         1.9775755878       12.2625603533       20.5494934564
  C         0.0520284961       10.4939517324       25.6830298907
  H        -0.2015334765       14.1716308841       25.4373803043
  C        -0.4054762166       12.5367888629       26.6811729190
  H         3.5796420698       12.5823022359       23.0848799151
  H         3.4171705054       12.8908451255       24.8032719979
  C         4.7199174286       14.4117717271       23.7296760459
  C         2.4312398457        9.2531481470       20.0531966349
  C        -0.3380309747       11.1713770714       26.8139297542
  H        -0.0057830996        9.4052436109       25.7040144369
  C        -0.7962346558       12.9513612720       27.9562113992
  H         5.4960350343       14.1588936474       24.4122614072
  H         4.4649163621       15.4296820158       24.0929512154
  C         5.2175814563       14.6154877710       22.3463771003
  C         2.4195948873        7.9158947992       19.8762914974
  C         2.9985367579       10.0028130334       18.8232228666
  C        -0.7499282655       10.4717447874       28.0507575440
  C        -0.9652044076       11.8230561236       28.7632872846
  S        -1.0679214939       14.4997238098       28.7267821946
  H         5.7193587846       15.5455232292       22.3711002966
  H         4.5003704376       14.9024633945       21.6222041495
  C         6.0005494426       13.3761304111       21.8490745249
  N         1.8831936513        6.9848472231       20.7117901846
  C         2.6595852528        7.3012538665       18.6037960962
  C         3.3241396503        9.4199930881       17.6375294325
  H         3.1553727901       11.1461043500       18.9777270466
  C         0.4329175673        9.6231188592       28.5960905606
  C        -2.0417553295        9.5991057238       27.9425823875
  C        -1.3423576961       12.2451917429       30.0722884802
  C        -1.4024961301       13.6402568557       30.1868443238
  H         6.5290839244       13.0113898517       22.6979440753
  H         5.2691249575       12.7127806049       21.4468275297
  C         7.1332189703       13.6427485999       20.8011253101
  S         2.1532793942        5.4753747311       20.2112739378
  N         2.5658405826        5.9281043711       18.7176809815
  C         3.1071773095        7.9704633625       17.4599716499
  H         3.6675544286       10.0218466368       16.6920131209
  H         0.9984896845        9.2691137276       27.8332185123
  H         0.1425390518        8.9324321836       29.2193388338
  C         1.6080134868       10.4301584684       29.2006350832
  H        -1.8746887801        8.7699394564       27.3427653283
  H        -2.1676248042        9.0972905164       28.8167464203
  C        -3.2618145774       10.3696223313       27.5178907229
  H        -1.5258740589       11.5871168895       30.8555764741
  C        -1.6930744742       14.3377467816       31.4840707071
  H         7.9030329754       12.8771987078       20.9392020397
  H         7.6085708131       14.6582490446       21.1290494835
  C         6.4686392730       13.6845264653       19.4494484804
  C         3.1908347966        7.2335450480       16.2416338509
  H         1.9644795642       11.1562752929       28.4225345043
  H         1.3245919059       10.9089935322       30.1381572307
  C         2.7271441555        9.4557733954       29.5410135237
  H        -2.9793651469       10.9715991009       26.6009803032
  H        -3.6367013681       11.0235292351       28.2290590787
  C        -4.4031179193        9.5269161267       27.0185727297
  C        -1.8036509409       15.7044454627       31.6377508367
  C        -1.7051007063       13.4592520465       32.7521343725
  H         5.7392857771       12.8940529197       19.2712688641
  H         5.9623969646       14.7078388815       19.3996074758
  C         7.4985313157       13.5753493919       18.3266697252
  H         2.6852198451        6.2558356701       16.2298808855
  C         3.4467621298        7.5948272530       14.9860932384
  H         3.1553229040        9.0825079727       28.5950553605
  H         2.2741702540        8.5826841385       30.0144789905
  C         3.7697097336       10.0857794238       30.3789414166
  H        -4.0514203659        8.6914843073       26.4482557486
  H        -4.6830577190        9.0568466831       27.9987289817
  C        -5.4495931705       10.4738222151       26.5044946491
  N        -1.6170934593       16.6779189485       30.6759902823
  C        -2.1877903234       16.2252897575       32.8881462709
  C        -1.9804933625       14.0335671466       34.0399795257
  H        -1.6633409701       12.3317631953       32.7300475493
  H         7.0395772111       13.5506564515       17.4382431126
  H         8.0355205618       14.4659345462       18.3362874585
  H         8.1961159604       12.7612418385       18.5529243753
  S         3.7805706256        9.1792090889       14.3623342943
  C         3.4733214818        6.5282205708       13.9967180279
  H         4.0082405253       11.0975023130       30.1035306759
  H         3.4128822973       10.2931097910       31.3559538395
  C         5.1177762744        9.3674467546       30.2166404250
  H        -5.0430729936       11.1692004080       25.7838052801
  H        -5.8303810596       10.9715841534       27.4395292729
  C        -6.5628472357        9.8288796827       25.7294905667
  S        -1.8488577768       18.0751759150       31.3491319111
  N        -2.2031314767       17.5772734484       32.8143912552
  C        -2.1914158640       15.5080086350       34.0999478319
  H        -2.0274858991       13.2612056589       34.8850975971
  C         3.9051477878        8.3702918605       12.8030500184
  N         3.8001792362        7.0130230270       12.8517288503
  O         3.3214520232        5.3700546660       14.3017783479
  H         5.8720311100        9.9528047174       30.5896458837
  H         5.4013563438        9.2568997253       29.1829124761
  C         5.2315749372        8.0385480889       31.0151588939
  H        -6.2070255259        9.3831096528       24.8520406965
  H        -6.9986855043        9.1191228721       26.3438997384
  C        -7.5528367951       10.9331511551       25.1676474282
  C        -2.5034095217       16.2623337113       35.2681757511
  S         4.2184344258        9.0482193992       11.1684174121
  C         3.9054688011        6.0802654003       11.7859786673
  H         5.6386537822        8.3452886258       32.0445197233
  H         4.2546176357        7.8024665197       31.0661038029
  C         5.9094543855        6.8697887069       30.2091279432
  H        -6.9987994939       11.3898688833       24.4859925359
  H        -7.7628969888       11.5772252718       25.9619746951
  C        -8.7649470836       10.2029415161       24.5674362264
  H        -2.1476223666       17.2898233514       35.3899108133
  C        -3.0908210233       15.9469294427       36.4177924745
  H         4.7053585097        6.3445084787       11.0003541626
  H         4.4002911724        5.0451037830       11.9914112662
  C         2.5482397381        5.8489026309       11.0484895885
  H         6.4052467229        7.2349437187       29.3866199328
  H         5.0932889919        6.3871908187       29.7113968520
  C         6.6118359904        5.8827299908       31.0993917255
  H        -9.2758430150       10.8622038368       23.6483667761
  H        -8.4502872706        9.1803429233       24.1220220358
  C        -9.7192609062       10.0343526713       25.6873243039
  S        -3.5641958310       14.3735127583       36.8863064559
  C        -3.1931075275       16.9575491160       37.5144912423
  H         1.6993553429        5.7158441872       11.8092347114
  H         2.4198637654        6.7225090330       10.3755729597
  H         2.5623046601        4.9394075391       10.3310616487
  H         6.1279446672        5.0336651395       31.6707746098
  H         7.2232146534        6.3316305639       31.9344138519
  H         7.2886808340        5.2077724368       30.4607813277
  H        -9.1789532408        9.8815261708       26.6310450764
  H       -10.5789090328        9.3328604161       25.5880246805
  H       -10.3519976205       10.9217088408       25.9285583249
  C        -3.8785055073       15.0360567749       38.4441601245
  N        -3.7081117305       16.3439153150       38.5797994677
  O        -2.7904837192       18.1431859508       37.4010202007
  S        -4.7311334633       14.1351615688       39.7328913401
  C        -3.8823134156       17.1449263249       39.7960903064
  H        -3.9391994054       18.1742225995       39.4711061300
  H        -4.7909374339       16.7297493748       40.2481841366
  C        -2.6192518394       16.9953470570       40.7623366505
  H        -1.6396056426       17.4307272880       40.4206671532
  H        -2.8546180094       17.6926843567       41.5895851840
  H        -2.7757000323       16.0428699493       41.0813522749
  H         7.5305527187       11.2432646805        3.4772619640
  C         7.8526892353       10.1972981430        3.5377282421
  H         6.9224040252        9.6575767113        3.5857150391
  C         8.7598894264        9.9837545565        4.7127305456
  C         8.7711034835        9.8969894916        2.2805689348
  C         8.0269044991       10.3095685351        6.0407377818
  H         9.2833194761        9.0597765509        4.9041301368
  H         9.5510950277       10.7351908048        4.6322616190
  H         8.2565703639        9.9927987944        1.3274680997
  H         9.2232637201        8.8588604411        2.4837321283
  H         9.5135065353       10.7088703523        2.2863857305
  C         7.2897202620        9.1734901166        6.6426653255
  H         8.6700849981       10.8008158156        6.8632200177
  H         7.3759897561       11.1845974047        5.9882786717
  C         6.4939209093        9.4873242218        7.8907930088
  H         7.9958190130        8.4069126081        6.9406426005
  H         6.5785911305        8.9086945106        5.8180629407
  C         5.3096869880       10.3555017237        7.7491854104
  H         7.2650159304        9.7614406385        8.6310125416
  H         6.1885755624        8.5800118256        8.4941630473
  C         4.1747654601        9.6137007080        7.0426916993
  H         4.9337311807       10.5072631805        8.7206812935
  H         5.6384903061       11.1999938864        7.1960253990
  C         2.8232901591       10.3920572545        6.8326825590
  H         3.9880534223        8.5722967211        7.7557427415
  H         4.5583479558        9.2131741990        6.0812122817
  C         3.2375056725       11.7576023441        6.2001792304
  C         2.3354516068       11.1304557825        8.1031277921
  C         1.7343998086        9.7490918005        5.9111157366
  C         2.9534322920       12.8082543419        7.0296143604
  C         3.6920605806       12.1719851585        4.9363312999
  C         2.3147205391       12.4991519015        8.2133642749
  C         1.7293605703       10.4635477605        9.2146784869
  H         2.3922523939        9.2823296483        5.1045311303
  H         1.3743751341        8.8247617129        6.5368980468
  C         0.4695823812       10.5833304573        5.6948136028
  S         3.5744217198       14.2834438046        6.4012113630
  C         3.9467072142       13.4989683522        4.9380473665
  H         3.7000294385       11.4666696915        4.2017661191
  C         1.9457833275       13.1661374767        9.3726850950
  H         1.5760981449        9.4473495527        9.0682674393
  C         1.4595965425       11.1156105652       10.3815856422
  H         0.7477174543       11.6321275372        5.4402752972
  H        -0.1693122248       10.6474370703        6.6497465262
  C        -0.4188115870        9.9892515778        4.5401372237
  C         4.3366471309       14.3378890528        3.8188132226
  C         1.4898754432       12.4858532957       10.4850250666
  H         2.0671335425       14.2075807768        9.4090909034
  C         1.0217506884       10.7313404704       11.6302511940
  H        -1.1467139656       10.6656835426        4.4868223132
  H        -0.7935374659        9.1055553528        4.8952289540
  C         0.3238262772        9.7956713025        3.1698363203
  C         4.4374392178       15.7852705643        3.6660940246
  C         4.7726183355       13.5483518043        2.5334575013
  C         1.1644874097       13.2553678685       11.7470938535
  C         0.7900105169       11.8309344061       12.4442332552
  S         0.6360186308        9.2500070716       12.3690211323
  H         0.9484677945        8.9369531127        3.3264773906
  H         1.1353514701       10.5993358921        3.0983785030
  C        -0.5878661066        9.7022161823        1.9111040555
  N         3.9200268217       16.7056818359        4.6085500324
  C         4.7219366976       16.3148419386        2.3881695016
  C         5.0103870829       14.1406470841        1.3701319882
  H         4.9670089760       12.5214331068        2.6637955030
  C        -0.1397696430       14.0474704462       11.6819088575
  C         2.3197809120       13.9477871881       12.6041778306
  C         0.3041996789       11.4205333446       13.7478645876
  C         0.2880260155       10.0266632894       13.8480018562
  H        -1.2238513327        8.8211284381        2.0166758300
  H        -1.3229461004       10.5292407963        1.9080328172
  C         0.2604431762        9.7327466951        0.6611125205
  S         4.0878226324       18.2105759722        3.9028757645
  N         4.6987000637       17.6617879914        2.4761480943
  C         4.9205321717       15.5772779308        1.2629501904
  H         5.3654342814       13.4954088699        0.5860718133
  H         0.1227939509       14.8277273805       11.1630842504
  H        -0.4209568022       14.4624124012       12.6120501443
  C        -1.2777232428       13.3091609975       10.9292498631
  H         2.7855633751       14.6912064801       11.9370875769
  H         1.8776930567       14.4940285234       13.2975636563
  C         3.4529899886       13.0567323139       13.1565473318
  H         0.2084574788       12.1551203490       14.3861156680
  C         0.0606762549        9.2151662218       15.1198730192
  H         1.1144784498        8.9928397721        0.4990349010
  H         0.5011516803       10.8042877282        0.3754613987
  C        -0.6182830834        9.3823064081       -0.6072117020
  C         5.0860811358       16.2770433225        0.0392375821
  H        -0.9685395950       12.8717818820        9.9683206615
  H        -1.4848171263       12.4542755838       11.5027196175
  C        -2.5337998196       14.0592435047       10.8050566581
  H         3.8086992821       12.5039335713       12.2754244810
  H         3.1701758900       12.3456709035       13.8685867145
  C         4.6375784727       13.9427819220       13.7432356235
  C         0.0214278688        7.8363738780       15.3795732422
  C        -0.2203731435       10.0425899464       16.3799469498
  H         0.0075872838        8.9922345862       -1.4108947349
  H        -1.2964440320        8.6502209045       -0.2105801358
  C        -1.4737881517       10.5134357556       -1.1933050385
  H         5.1178272140       17.3893344588        0.1139624868
  C         5.2850941353       15.8439093777       -1.2639253245
  H        -2.2720588719       15.0134473517       10.4526282982
  H        -2.9801088939       14.1685598565       11.7736349248
  C        -3.5410360471       13.3324137705        9.8915735650
  H         5.1125061228       14.5404903678       12.9366923670
  H         4.1871793762       14.8198949499       14.3570946610
  C         5.6235692049       13.2399686167       14.5605564915
  N         0.2686477497        6.9232983937       14.3879949626
  C        -0.4174270442        7.3231741486       16.6386312880
  C        -0.3973312420        9.5416131302       17.6681707661
  H        -0.1655254761       11.1093285643       16.1908431394
  H        -1.8735559090       11.0316228717       -0.3721770462
  H        -2.1601506934       10.0999872284       -1.9328725102
  H        -0.8410869153       11.0819166283       -1.8293444875
  S         5.5601773864       14.2116162549       -1.7673876945
  C         5.3923213285       16.8699356424       -2.3568353546
  H        -3.0300602792       13.7545220618        8.8812569130
  H        -3.3405480249       12.1917225684        9.9329770057
  C        -4.8901993528       13.9328493108       10.0408417695
  H         5.6353198569       12.2033722896       14.0132155376
  H         5.2390121228       12.9321677651       15.5389750935
  C         6.9523405642       14.0447850130       14.4898895379
  S        -0.3576395482        5.4684355697       14.9850300537
  N        -0.6326687939        5.9451337797       16.4366289729
  C        -0.5470933492        8.1045792763       17.8392632489
  H        -0.6985600299       10.2865150887       18.4465165910
  C         5.7442807058       14.9244551978       -3.4408533156
  N         5.7743281008       16.2638416226       -3.4974453215
  O         5.2422727471       18.0872784839       -2.2716380945
  H        -5.3467333029       13.7545462963       11.0722409359
  H        -4.9732065590       14.9690180332        9.9979530980
  C        -5.9263986389       13.2946319411        8.9832070441
  H         7.7560639149       13.4615660364       14.8684768920
  H         7.2325959593       14.1483918685       13.4591797412
  C         6.9511006570       15.3840079393       15.3050631818
  C        -0.9580385260        7.4187467214       19.0317033338
  S         6.0638461727       13.9947280678       -4.8621216445
  C         5.7019069716       17.0196924371       -4.7096566604
  H        -5.4455899607       13.2516228568        8.0067797493
  H        -5.9093296718       12.2950721681        9.2884831871
  C        -7.2224370358       13.9567608463        8.9120811787
  H         7.5865781647       15.2144094694       16.1887964360
  H         5.8968163488       15.5171641254       15.5595478201
  C         7.4246414294       16.6435968675       14.4304606743
  H        -0.8088378544        6.3885805076       18.9647688064
  C        -1.4537199163        7.8519665681       20.2528438007
  H         6.4418677986       16.7361476866       -5.4566210932
  H         6.0096419513       17.9759578870       -4.6484075533
  C         4.2971666091       17.0289928225       -5.2749208345
  H        -7.6728241275       13.6243960309        8.0104889046
  H        -7.4111840989       15.1582700200        8.8339110711
  C        -8.1157225770       13.5877225381       10.0580344374
  H         8.3333707078       16.3132279110       13.8327622547
  H         6.6241216078       16.8451746802       13.8557617131
  C         7.6473564769       17.8380706215       15.2743973348
  S        -1.8034940961        9.5051556741       20.6934091050
  C        -1.5373156672        6.8761129175       21.3389287386
  H         3.5720252880       17.0491391042       -4.5873887834
  H         3.9633720368       16.3311849393       -5.9511712403
  H         4.1233846200       17.8397590550       -5.8925271141
  H        -7.9347506466       14.3061458445       10.9812143418
  H        -9.2126878123       13.5187163629        9.8953680753
  H        -7.7999211729       12.6361642542       10.4046599778
  H         8.0943175988       17.3794271248       16.2692942568
  H         8.1645729708       18.6270680280       14.6806091891
  H         6.7642778087       18.2606571251       15.8716012752
  C        -2.2734221184        8.8282330336       22.2197685876
  N        -2.0658690787        7.5181110148       22.3774566056
  O        -1.3961047854        5.6690574144       21.1309107693
  S        -3.1149320751        9.7808936728       23.4198134165
  C        -2.3471001933        6.7312964982       23.5441048435
  H        -2.2080550068        5.5997222482       23.4103951169
  H        -3.2908584530        7.1248291067       23.9476850051
  C        -1.2855309652        7.0945882074       24.6264135808
  H        -1.2488740562        6.6210783832       25.5333103037
  H        -1.4635087655        7.9879284704       24.9538372029
  H        -0.2199240931        7.1548779000       24.3343915901
