352
i =
  H        -3.1849862537       14.7190114413       15.9908471172
  C        -3.6184751801       13.7815764674       16.4169578542
  H        -4.6603278582       13.9874408340       16.8278669605
  C        -2.5641188253       13.2723602311       17.4658407063
  C        -3.6680853053       12.8367636904       15.1979250843
  C        -2.6139539396       14.1085773264       18.7103623344
  H        -2.8453643932       12.2403290338       17.7106778269
  H        -1.5426831562       13.1828118737       17.1334624428
  H        -3.7586622652       13.3968840830       14.2345178368
  H        -2.7450476512       12.2591399690       15.0111282026
  H        -4.4494913239       12.1248546223       15.3196633537
  C        -1.4835155761       13.7352495632       19.6847969125
  H        -3.5753209592       13.8518207736       19.1681047284
  H        -2.7668126325       15.1731927954       18.6517137577
  C        -1.9265203750       13.4310690576       21.1449411475
  H        -1.0630890722       12.7575938528       19.2793507234
  H        -0.6417196956       14.4934252597       19.7098261471
  C        -0.7826022915       12.7146504532       21.9202629269
  H        -2.7301068171       12.7461292832       21.1614225843
  H        -2.1731077036       14.4217214072       21.5892693229
  C         0.2319526527       13.7032509245       22.3800450462
  H        -1.2495544692       12.0409139668       22.6358890934
  H        -0.3172334102       12.0242650730       21.1735115566
  C         1.4709489509       12.9833636650       23.0740096793
  H         0.7192823557       14.1286295430       21.5332278278
  H        -0.2174409793       14.4707234723       23.0557298814
  C         1.9018268280       11.6316770178       22.4077278401
  C         0.9791914436       12.2829516420       24.3071364745
  C         2.6181983582       13.9806014438       23.3845059939
  C         1.5663294674       10.5302884193       23.1339227621
  C         2.4798264671       11.2960013727       21.1883258935
  C         1.0456381861       10.9162757236       24.3737395303
  C         0.4106421724       12.8201154615       25.5122917648
  H         2.9019978937       14.6025435134       22.5292793487
  H         2.2788064650       14.7766985176       24.0897709816
  C         3.9324351485       13.4583142233       23.9557574889
  S         1.8940418955        9.0290447995       22.3858385948
  C         2.3830706010        9.9615737858       20.9414670050
  H         2.8221012861       12.0136691588       20.4826899851
  C         0.5813426619       10.2564700236       25.4905625712
  H         0.3520869325       13.8624105642       25.2535414773
  C        -0.1225230210       12.1978191538       26.5634708548
  H         4.2582598021       12.5112769725       23.4606037942
  H         3.8230862099       13.2745266993       25.0180834029
  C         5.0595635568       14.5387427939       24.0377114186
  C         2.6009153296        9.4126843529       19.5955379187
  C         0.0619295526       10.8476138249       26.6502064375
  H         0.6109026872        9.1315584642       25.5146097835
  C        -0.6485612357       12.5342107309       27.8433220127
  H         5.8512761390       14.3302817015       24.7095927782
  H         4.5974359339       15.4330770727       24.5598642370
  C         5.5945291000       14.8757878326       22.6935205043
  C         2.5050271975        8.0300116184       19.3505848166
  C         3.1129405370       10.1588183977       18.4082763629
  C        -0.4299322902       10.1292455505       27.9034273682
  C        -0.8372166648       11.4174782727       28.6045118312
  S        -1.0417939063       14.0333682686       28.6040575824
  H         6.4853560092       15.4720732442       22.7465166363
  H         4.8225854689       15.3696630832       22.0723310706
  C         6.2607475760       13.6280950267       22.0284755617
  N         2.0652016456        7.0661906071       20.2391839002
  C         2.7365597830        7.4582783907       18.0971681476
  C         3.3909063746        9.5676469833       17.2295793126
  H         3.3136339288       11.2229192763       18.5436609335
  C         0.5615831879        9.4427514290       28.7801726285
  C        -1.7137795657        9.2812399655       27.6829881916
  C        -1.2693720445       11.8028927133       29.8760510608
  C        -1.3671229622       13.1976137509       30.0577601447
  H         7.2624106516       13.9710933125       21.7395583196
  H         6.3811798822       12.8621724240       22.7349420296
  C         5.5744303581       13.0394633067       20.7561307692
  S         2.0452621536        5.5842530008       19.5050950835
  N         2.6145094601        6.0356335976       18.0926942448
  C         3.0810255398        8.2139938797       16.9842809263
  H         3.8947897872       10.1209317587       16.5182977995
  H         0.9129354425        8.5402907517       28.2847619382
  H        -0.0073150824        9.1662181678       29.6808032832
  C         1.7963445006       10.2572908940       29.1339470189
  H        -1.5988825391        8.4913563447       26.9232492512
  H        -2.0811080500        8.7212843814       28.5245965129
  C        -2.9610797068       10.1531058588       27.2749733171
  H        -1.7412496290       11.0900119288       30.5581370879
  C        -1.7462344305       13.8777926256       31.3697090973
  H         4.5297036304       13.2372493028       20.7587592932
  H         5.6716745757       11.9673107218       20.6415750737
  C         6.1615518045       13.8040727851       19.5193112737
  C         3.2564058601        7.5205258563       15.7310338770
  H         2.1027361904       10.7140485347       28.1945511870
  H         1.5195942559       11.0394871091       29.8170394646
  C         2.9919449729        9.4493354533       29.6982619234
  H        -2.8054894501       10.7979243087       26.4094451358
  H        -3.3135492087       10.6899177823       28.1760495240
  C        -4.2232520911        9.2998441774       26.8327521988
  C        -1.9344852907       15.2889450131       31.5835094503
  C        -1.8700763632       12.9954591405       32.5563813863
  H         5.5907401494       13.6164611144       18.6344734390
  H         6.2650589354       14.8726020333       19.6454393366
  C         7.4908087360       13.2757845887       19.0138422422
  H         2.8386948733        6.4756635409       15.7317352597
  C         3.5981397498        7.9905578560       14.4901175979
  H         3.2256461031        8.7505888597       28.9098618332
  H         2.6098224566        8.8221255370       30.4816208534
  C         4.1703682897       10.2058589829       30.2628581545
  H        -4.0537296319        8.9814375879       25.7962312946
  H        -4.3336756600        8.3472761163       27.3373432896
  C        -5.4276534228       10.2164419130       26.9068101424
  N        -1.8294292718       16.2641359992       30.6248985808
  C        -2.1000500369       15.7393985095       32.9087333217
  C        -2.2704735669       13.5186076016       33.7565103895
  H        -1.6750247871       11.9676667399       32.5076884031
  H         7.6196606282       13.3989278579       17.9168759566
  H         8.4287781732       13.6040074179       19.4496124218
  H         7.5205814886       12.2030072288       19.0741728136
  S         4.1385900819        9.5558159976       13.9929412232
  C         3.5388109116        6.9733041334       13.4184210769
  H         4.2806930317       11.1978066812       29.7598693622
  H         4.0361829063       10.3923852496       31.2687614089
  C         5.5649597197        9.5402100068       30.1919240364
  H        -5.3965730089       11.0599079067       26.2521393208
  H        -5.6584609727       10.6573576537       27.8826312686
  C        -6.6023131982        9.3835094404       26.4431340831
  S        -1.8356817112       17.6611752091       31.3729512446
  N        -1.9693509609       17.1307499170       32.9050221614
  C        -2.3237026335       14.9505337845       34.0341548282
  H        -2.4670490175       12.8929727586       34.5322093630
  C         4.2150566932        8.9000979876       12.3782232780
  N         3.9705894272        7.5630637521       12.2438259346
  O         3.4012414982        5.7623838917       13.6537916950
  H         6.2232295949       10.2595742340       30.6952555636
  H         5.8457695700        9.3086532652       29.1561600419
  C         5.6357995481        8.1768127469       30.9696335781
  H        -6.2281875707        8.5425894957       25.9802979218
  H        -7.3292533563        9.0085992176       27.1485397451
  C        -7.3518420559       10.2289876096       25.3863614031
  C        -2.5719498517       15.5544424686       35.3103182220
  S         4.5941229942        9.8435162722       10.9802055442
  C         4.2677693682        6.7776059315       11.0339906802
  H         6.1886983534        8.2750025958       31.9039376867
  H         4.7324351509        7.6150050968       31.1096149274
  C         6.4750716058        7.2545241437       30.0957299076
  H        -6.6288884350       10.3083157091       24.4970199925
  H        -7.4529364585       11.1293323761       25.9320605364
  C        -8.7526444999        9.7699522335       24.9450404224
  H        -2.3311943336       16.6175173246       35.3618712836
  C        -2.9538544416       15.0923745455       36.5477014780
  H         4.8212631845        7.2879119230       10.2588335106
  H         4.8061788154        5.8174374355       11.1321694384
  C         2.9252169528        6.4563753901       10.3726445398
  H         7.3594237312        7.5802605062       29.5885685975
  H         5.9538205094        6.9549797282       29.1546763504
  C         6.6903198517        5.8876520669       30.7727146890
  H        -8.9783407653       10.3570945943       24.0365410455
  H        -8.7954202429        8.7179301613       24.6534940039
  C        -9.8457954391       10.0076079411       26.0388289019
  S        -3.3411619685       13.4601195322       36.9597475117
  C        -3.2573804424       16.1077592868       37.6297096286
  H         3.0146917312        6.3578861615        9.3165741315
  H         2.5677300418        5.5900900680       10.9234494900
  H         2.2828715196        7.3504913609       10.5238595069
  H         6.8236293263        5.9555304431       31.8750960321
  H         7.5827613587        5.5454389859       30.2469713310
  H         5.8651516549        5.2593766799       30.5211719814
  H       -10.1071604831        9.1739755723       26.6581687868
  H       -10.7277293449       10.2495701356       25.4883802698
  H        -9.7015372239       10.8565109286       26.7127340458
  C        -3.8356704812       14.0587108576       38.5124289776
  N        -3.7079454958       15.4194568329       38.6642596828
  O        -3.0959231196       17.3280274118       37.5179716514
  S        -4.6549075995       13.1674338716       39.8506684895
  C        -4.1138069211       16.1649049827       39.7972330722
  H        -4.4129783822       17.2006461816       39.5983354175
  H        -5.0197171001       15.7817247509       40.2480649367
  C        -2.9668026042       16.1093728844       40.7704755772
  H        -2.8365009534       17.0622680693       41.3108938266
  H        -3.1309385952       15.4100652050       41.5401667470
  H        -1.9820519131       15.8481743809       40.2906609812
  H         6.6819321180       11.6349007378        2.7926926178
  C         7.1418006322       10.6092866160        2.7098393169
  H         6.3329426536        9.7867807614        2.8613564979
  C         8.1557540110       10.4600872146        3.8341996368
  C         7.7776112550       10.4707630931        1.4008554860
  C         7.5419470905       10.6909370924        5.2917274050
  H         8.4959474940        9.4585186834        3.7141954485
  H         8.9978057595       11.1363955496        3.7084103258
  H         7.4863640558       11.3020315681        0.7352504958
  H         7.4703699395        9.5539044319        0.9433871073
  H         8.8110039724       10.3804667646        1.5461974106
  C         7.2937627015        9.3677848285        5.9596263049
  H         8.3526441450       11.2461108323        5.8783274789
  H         6.6565360731       11.2517646926        5.3086450857
  C         6.5876865708        9.5043644491        7.3194500644
  H         8.2374459590        8.8377572448        6.2119524638
  H         6.7238099172        8.6493504408        5.3084262295
  C         5.3911478003       10.4177977938        7.5447702779
  H         7.3596332877        9.9582105233        7.9569027110
  H         6.4058798367        8.5177668481        7.5982777838
  C         4.0935344284        9.6728709759        7.2062122521
  H         5.2856843515       10.7096769198        8.5857723558
  H         5.5184875688       11.3549255921        7.0458288196
  C         2.7653780460       10.4881555964        7.0199579952
  H         3.8459449530        8.8740366283        7.9053747172
  H         4.2694459367        9.1687702760        6.2864878914
  C         3.0155256824       11.8481064582        6.3099576146
  C         2.3951396663       11.1748082942        8.3070258234
  C         1.5700562482        9.6904941026        6.4039777385
  C         2.8164181651       12.9523633359        7.1297576230
  C         3.4171149344       12.2930941798        5.0362547896
  C         2.3816216627       12.5190926343        8.4061685901
  C         2.0300048677       10.5388786458        9.5096055677
  H         1.8598575575        9.0934082082        5.5556259506
  H         1.3405522850        9.0378847086        7.1823270721
  C         0.3474619893       10.6141925128        6.0350308076
  S         3.0077715087       14.4635555723        6.4207179012
  C         3.4723892962       13.6558053063        4.9572130533
  H         3.5143617446       11.4991633825        4.2949665693
  C         2.0746401661       13.1993936148        9.5494071711
  H         2.0107727146        9.4744755532        9.4694823532
  C         1.6411752621       11.1886819263       10.6391881184
  H         0.7927390519       11.4003284776        5.3942895089
  H        -0.0505542479       10.9896386052        7.0570262204
  C        -0.7995314768        9.9457707238        5.2830231953
  C         4.0442357035       14.4067469045        3.7478015189
  C         1.6631443100       12.5555046283       10.7057825017
  H         2.0451266456       14.2602305346        9.5878671509
  C         1.1358056992       10.8131120656       11.8178245664
  H        -1.7348948907       10.3939586033        5.4598080392
  H        -0.8910658531        8.9826112959        5.7907680288
  C        -0.4467172991        9.6270392762        3.7960893137
  C         4.0568234243       15.8070635023        3.4658036615
  C         4.3600148231       13.6076985975        2.5653807997
  C         1.1272540019       13.2671981668       11.9223016360
  C         0.8232139603       11.8896768562       12.6020466226
  S         0.7777773326        9.3009063762       12.5189942388
  H         0.0057584383        8.6901657682        3.7872938074
  H         0.2885233377       10.3604248844        3.4864411883
  C        -1.6977293944        9.4169838501        2.9314035361
  N         3.4935203712       16.7015988478        4.3401970966
  C         4.3294780706       16.3304732038        2.2445205383
  C         4.6953761067       14.1036939040        1.3651308107
  H         4.3943856461       12.5148095210        2.6319732223
  C        -0.1361772196       14.1164102544       11.6301030672
  C         2.2482268102       14.1045875015       12.7212028019
  C         0.4095016385       11.4694218637       13.8948541302
  C         0.3003107344       10.0874126322       13.9634140393
  H        -2.3512975341        8.7432018464        3.4827903405
  H        -2.2113610047       10.3858584443        2.9458564300
  C        -1.4767489821        8.8733530391        1.5103971090
  S         3.6060494532       18.1877710019        3.6810106746
  N         4.1474511645       17.7034732919        2.2414575217
  C         4.7335957536       15.5519302767        1.1257278028
  H         5.0482765579       13.4067484230        0.6170260598
  H         0.0272046802       15.0947390449       11.1267786997
  H        -0.4424624857       14.3960457585       12.6251331170
  C        -1.2688419858       13.3267102335       10.9898427412
  H         2.6486269175       14.8906809192       12.0820149256
  H         1.7013889014       14.4652993442       13.5580250497
  C         3.3127875645       13.2355209113       13.3094084882
  H         0.2622094403       12.2217194500       14.7141924352
  C        -0.0947159097        9.2779862505       15.1154585472
  H        -2.3932615442        8.6335036544        1.0967191024
  H        -1.0042434913        7.8833583171        1.5810926492
  C        -0.7371211063        9.8411701891        0.5911412474
  C         4.9999099526       16.2429240006       -0.0743715691
  H        -0.9464639314       12.9302870848       10.0321889432
  H        -1.5553881055       12.3977893539       11.5002577258
  C        -2.5605125807       14.0619913731       10.8650605040
  H         3.5986331986       12.5157801958       12.5713738489
  H         2.9490981578       12.6300085042       14.1272387322
  C         4.5558908634       14.0478858520       13.8223689312
  C        -0.1220167138        7.8518206936       15.3391522591
  C        -0.4942205755       10.0421165649       16.3318029849
  H        -1.2463218287       10.7441584339        0.5044085863
  H         0.2069724386       10.0087840551        1.1033989684
  C        -0.6113618155        9.2159176939       -0.7691875461
  H         4.8111183116       17.2919402901       -0.0568558998
  C         5.2947690666       15.7487015894       -1.3410024308
  H        -2.6126029917       14.8953322945       10.0888598931
  H        -2.6395300224       14.5616882782       11.8534159464
  C        -3.7680428842       13.2262075956       10.5360641332
  H         4.9023965683       14.5340878106       12.9412017910
  H         4.0999151817       14.7356941010       14.5395750960
  C         5.6277431323       13.3124381469       14.5560736529
  N         0.2135428421        6.8788009237       14.4038957880
  C        -0.5112245060        7.2436164568       16.5092995567
  C        -0.8026869614        9.4383979212       17.5579720546
  H        -0.6418511005       11.1214108911       16.3351732875
  H        -1.3885179704        8.4088058781       -0.8484267699
  H         0.4106415542        8.7279815878       -1.0436156707
  H        -0.7144162756        9.8991194344       -1.5703650997
  S         5.5996530483       14.1337245210       -1.8612054688
  C         5.2841412932       16.7404845462       -2.4484629266
  H        -3.3369010733       12.5139683725        9.8491770234
  H        -4.1313442252       12.6551998568       11.3625592680
  C        -4.9298020186       14.0021974587        9.8995491175
  H         5.8131369967       12.3231666079       14.1206488620
  H         5.4935154588       13.2112963223       15.5885132756
  C         6.9431504728       14.1015456349       14.4285261646
  S         0.0856870993        5.3560005851       15.0769203635
  N        -0.4722134952        5.8527244944       16.4978925912
  C        -0.8372621765        7.9447480655       17.6962450513
  H        -0.9908045398       10.0832768183       18.3393769315
  C         5.4923024276       14.7501186330       -3.5344410435
  N         5.4792718933       16.0919643727       -3.6233819764
  O         5.0255199061       17.9377948709       -2.2739669143
  H        -5.1805507052       14.7650299391       10.6675184127
  H        -4.4820421465       14.4372526473        9.0868875881
  C        -6.0702731372       13.0816809127        9.4961382504
  H         7.7327355671       13.4132885483       14.7419328765
  H         7.1296088213       14.1598013165       13.3615918457
  C         7.0276309288       15.4671319042       15.0004979581
  C        -1.0205947528        7.2622035186       18.9043043366
  S         5.8224350878       13.7629880363       -4.9653721563
  C         5.5313680500       16.7647641678       -4.9062107646
  H        -5.6539247360       12.6139999797        8.6189283150
  H        -6.1700125296       12.3416946659       10.3136568920
  C        -7.2983023788       13.8793754009        9.2158088048
  H         7.6919984950       15.3323505469       15.8890263608
  H         6.0609657933       15.8410726590       15.2514327666
  C         7.5591873555       16.5753352872       14.1383896212
  H        -0.6251028216        6.2915179255       18.9127089334
  C        -1.4675750369        7.7501487588       20.1259827097
  H         6.0162973876       16.2287586895       -5.7168925388
  H         6.0429873960       17.7400192957       -4.7301058087
  C         4.1211693566       17.1936211885       -5.4362962916
  H        -7.7971128272       13.3777132381        8.3548984971
  H        -7.2273162497       14.9026089143        8.8815117413
  C        -8.3255198161       13.7647002583       10.3484340099
  H         8.3266909698       16.1119007975       13.4746410544
  H         6.6376482589       17.0045869826       13.6311871581
  C         8.2570490160       17.7028392666       14.9968386398
  S        -1.8396095106        9.3924711527       20.5263040828
  C        -1.5075458086        6.7694323543       21.2247881794
  H         3.7588045273       18.1237959517       -4.9253988085
  H         3.4318050841       16.3480742346       -5.2974652673
  H         4.0126484255       17.4216025585       -6.4764021905
  H        -9.0025727023       12.9466518444       10.1635857637
  H        -7.8459813271       13.6725732594       11.3683043278
  H        -8.9547302126       14.5876550336       10.4053162253
  H         9.0662411763       18.0967599986       14.4220737373
  H         7.5677042558       18.4627805734       15.3140560434
  H         8.6881039496       17.2563151839       15.9175078992
  C        -2.1176566933        8.7667951919       22.1407828415
  N        -1.9883827789        7.4339349369       22.2860536703
  O        -1.2621385365        5.5476408353       21.1275128581
  S        -2.7466189602        9.7268553958       23.4549968589
  C        -2.1283368901        6.7034937792       23.5802575399
  H        -2.6285501332        5.7593585358       23.4491869469
  H        -2.6449418037        7.2686216767       24.2636783504
  C        -0.7639535366        6.5147171303       24.1101397687
  H        -0.8694182591        6.3406227831       25.1533952656
  H        -0.1190467771        7.3817870969       24.0363851135
  H        -0.2775014157        5.6662122356       23.6867628031
