352
i =
  H        -3.9511874079       14.6593720246       16.2085468750
  C        -3.5009915507       13.6609017443       16.2691787903
  H        -4.2139712267       12.9614233390       16.6790739693
  C        -2.3109333012       13.6847697193       17.2455329203
  C        -3.0412671347       13.3325451498       14.8042240092
  C        -2.9557853503       13.8831746198       18.6579614994
  H        -1.9289580051       12.6789592087       17.2978181505
  H        -1.5809712160       14.4773041236       17.1090090794
  H        -3.9592433912       13.0985989813       14.1855752171
  H        -2.5895227185       14.2140522313       14.3928749608
  H        -2.3141389005       12.5446654669       14.6990505135
  C        -1.9070924149       13.5069563713       19.6203496245
  H        -3.8597385631       13.3576884835       18.8064498042
  H        -3.2782880191       14.8963411160       18.8366248989
  C        -2.3629671166       13.4484824982       21.1335571097
  H        -1.5486056527       12.4765800112       19.3948443990
  H        -1.0092512556       14.1240027912       19.4727562166
  C        -1.3244715168       12.8195050038       22.0348689332
  H        -3.2417622548       12.7793198562       21.2109755695
  H        -2.5318340639       14.4380056036       21.4670561721
  C        -0.1935358888       13.7907176862       22.3810862045
  H        -1.7857631600       12.4035352225       22.8661546879
  H        -0.8897304383       11.9924485663       21.5836032168
  C         0.9670752369       13.0836993032       23.0726079574
  H         0.2221939369       14.2050429062       21.4753363512
  H        -0.5670907901       14.5983384024       22.9757497085
  C         1.3937436712       11.8064188294       22.4433817801
  C         0.6598760498       12.4065712349       24.3426543794
  C         2.1927353669       14.0126564001       23.1112533366
  C         1.2347048108       10.6833449630       23.2473168816
  C         1.8200981284       11.5106934426       21.1344511518
  C         0.7336135415       11.0858163740       24.4908878748
  C         0.1546854998       13.0412279208       25.4427351399
  H         2.2856705715       14.4756529820       22.1204279688
  H         2.0562772718       14.9373216599       23.7900363377
  C         3.4411716872       13.2126808947       23.4397296415
  S         1.4801856786        9.2096718716       22.4302251888
  C         1.9215398656       10.1455624026       21.0010793140
  H         1.9758529025       12.2559921085       20.3685996809
  C         0.4011371418       10.4912715317       25.7081032972
  H         0.2708744748       14.1007956188       25.3972114118
  C        -0.2090131160       12.5108555338       26.6363566989
  H         3.7373512112       12.4635565009       22.6200960243
  H         3.2685581772       12.6281630027       24.3145973767
  C         4.6602844712       14.1528969393       23.6805479694
  C         2.3823450339        9.5064506512       19.6680026773
  C        -0.1108747115       11.1934879346       26.8078691814
  H         0.5336869978        9.4327218510       25.6534837594
  C        -0.5550342256       12.9950495250       27.9243932187
  H         5.4608351614       13.5448311041       24.1649853559
  H         4.3163202160       14.8713233765       24.4706794062
  C         5.3105955122       14.9117059789       22.4688893897
  C         2.4047818444        8.1634161744       19.3359010148
  C         2.5653112009       10.3820473781       18.4524041920
  C        -0.4659077982       10.5702450846       28.1568100778
  C        -0.7492370671       11.9570298912       28.7628176967
  S        -0.8354683892       14.5052703592       28.6610617307
  H         5.9209867182       15.6973811595       22.8113946105
  H         4.5473737274       15.3178563701       21.7815434404
  C         6.2859605424       13.9553964932       21.7454921066
  N         2.1340788491        7.1573404301       20.3284502026
  C         2.5858033710        7.5821807531       18.0697622607
  C         2.8357346574        9.8664088183       17.1816651657
  H         2.6208049240       11.4477741083       18.5705543198
  C         0.7259321111        9.7757837879       28.7855328586
  C        -1.7865366972        9.7580578874       28.0429630990
  C        -1.2098687696       12.3718580472       30.0028434358
  C        -1.2036734189       13.7204984143       30.0931224261
  H         7.1273447987       14.6055459811       21.5494256561
  H         6.7550809962       13.1470224426       22.3200497933
  C         5.7049366388       13.3797245846       20.4588070254
  S         2.4058793644        5.7081121403       19.6397237772
  N         2.5174575312        6.1740630724       18.0981772500
  C         2.8922045576        8.3939454518       16.9373409964
  H         2.9773293391       10.5239308812       16.3567713256
  H         1.3080262200        9.3090178666       27.9677272839
  H         0.4557477238        8.9227230072       29.3983817668
  C         1.7290172546       10.6385883313       29.3767097425
  H        -1.5237869441        8.8131331983       27.5644321539
  H        -2.2438946941        9.4512664558       28.9970789838
  C        -2.9895345504       10.4057614617       27.3104681986
  H        -1.3908309086       11.7075272066       30.7397100607
  C        -1.6048225627       14.5269821984       31.2763649164
  H         4.6514322016       13.2905066493       20.4779364722
  H         5.9546036115       12.3688071518       20.4403215643
  C         6.2565404865       13.9909839579       19.1924120007
  C         3.0224034755        7.6386132721       15.7056910431
  H         2.0811938475       11.3790489890       28.6296363230
  H         1.4200142538       11.3814758634       30.1563676595
  C         2.8457560857        9.7857434700       30.0072096206
  H        -2.6625546160       10.8136417595       26.3810549872
  H        -3.4103344714       11.2906519064       27.7699445139
  C        -4.0353848921        9.2751948856       27.0911410443
  C        -1.7316548641       15.9102888974       31.4149351078
  C        -1.6188576117       13.8427913948       32.6119707248
  H         5.7793106680       13.5209042644       18.3615072955
  H         6.0277500549       15.0094809613       19.2065510654
  C         7.7064321116       13.8939717389       18.9496715835
  H         2.7981135811        6.5912869285       15.7543057319
  C         3.4762411514        7.9731623222       14.4677973917
  H         3.1761448690        9.1203919374       29.2304797687
  H         2.4676887196        9.1420801918       30.8037257453
  C         3.9393240711       10.5981200975       30.6749421536
  H        -3.8831306662        8.8506287184       26.0631813745
  H        -4.0088636998        8.4992144558       27.8745710312
  C        -5.4977755764        9.8216773338       27.1611613174
  N        -1.6226171682       16.7481366364       30.3195302909
  C        -1.8553191032       16.6387625337       32.6417009073
  C        -1.7368459377       14.5069049268       33.8365450567
  H        -1.4593286043       12.7627626932       32.6029941600
  H         7.9397688246       13.3515611048       18.0945370761
  H         8.1055661321       14.8782065776       18.7004027078
  H         8.2419481252       13.5125434894       19.8556965132
  S         4.1261903581        9.5619338783       14.0318114846
  C         3.5712087857        6.9949093062       13.3953044163
  H         4.0177659578       11.6324885152       30.2134533828
  H         3.6566607937       10.7225660665       31.7276692195
  C         5.2850133790        9.9114358432       30.5409903860
  H        -5.5181420958       10.3568239512       28.1289028759
  H        -6.2985875950        9.0280570626       27.0241416698
  C        -5.6738582599       10.7539642472       26.0739370057
  S        -1.4761008395       18.2917122562       30.9253210337
  N        -1.8207847593       18.0256393330       32.4708929072
  C        -2.0234173213       15.9168556006       33.8959989624
  H        -1.6755241907       14.0127653656       34.7906220307
  C         4.3210478426        8.9476986653       12.3691359664
  N         4.0089783934        7.6115103846       12.2364961427
  O         3.0762860297        5.8735678482       13.5244043326
  H         5.8808020974       10.4956578759       31.2162050839
  H         5.7319535266       10.0178880175       29.5543641843
  C         5.2691545469        8.4923912405       31.1888701448
  H        -5.0033406634       11.6122452981       26.1899727038
  H        -5.4119409197       10.3115191091       25.1474639228
  C        -7.1335979994       11.2850299818       26.0904549294
  C        -2.2563834310       16.6607563992       35.0851672599
  S         4.6722316728        9.9111710731       10.9534180325
  C         3.9252074449        6.9593801042       10.9262278390
  H         5.5206446512        8.6508246206       32.2246489030
  H         4.2752395418        8.0776400136       31.2541671386
  C         6.2599633683        7.4638852247       30.5537209561
  H        -7.0136388236       12.3627597528       25.9818965237
  H        -7.6163671019       11.2465923360       27.0827395064
  C        -8.0678886027       10.8251143225       24.9304262877
  H        -2.1716786385       17.7765418004       35.0060957486
  C        -2.7305115925       16.3509123228       36.3482234934
  H         4.9114205503        7.0560393237       10.4454250850
  H         3.9995239405        5.8564747164       11.1035497470
  C         2.7101535966        7.2728218651       10.0068592332
  H         7.2767852594        7.8272251656       30.5813524541
  H         5.9977415082        7.4110272100       29.4750144572
  C         6.1507099786        5.9968118614       31.0357568642
  H        -8.5042289025       11.6864578722       24.6593465794
  H        -7.5182330878       10.4858720074       24.0484072004
  C        -9.1937980297        9.7791550058       25.2536512676
  S        -3.2818573069       14.7868910034       36.8245849996
  C        -2.9049041794       17.3461797617       37.4268869741
  H         2.1289824006        6.3833900492        9.7686245919
  H         2.0648840128        8.0597073740       10.4760830810
  H         3.0580567620        7.6370618185        9.0738676953
  H         5.2586262228        5.7232932183       31.5065254228
  H         6.8802760896        5.8307845669       31.8164216336
  H         6.3482344232        5.3096182104       30.1401645572
  H       -10.0034040876       10.2349858654       25.8798974932
  H        -8.7168011750        9.0012438030       25.7273762813
  H        -9.6093837636        9.4452562574       24.3117022795
  C        -3.6600297416       15.5211296703       38.3987053640
  N        -3.4400622685       16.8185859771       38.5247462238
  O        -2.6289880396       18.5478890768       37.1922036405
  S        -4.1998331566       14.6150956837       39.8171652225
  C        -3.7005945637       17.5160126878       39.7765087615
  H        -4.2065109845       18.4655667834       39.4476799343
  H        -4.5116459207       17.1876406404       40.4838063114
  C        -2.3984953914       17.8477118355       40.4239972038
  H        -1.7264338209       17.0303726649       40.1964747323
  H        -1.9346777086       18.7153778474       40.2397262697
  H        -2.5714647083       17.8087303337       41.4778707849
  H         7.0565853683       10.7580324742        3.4379271002
  C         8.0118106995       10.3395829814        3.3210480833
  H         7.8358012696        9.2316416414        3.3654524453
  C         8.9729806521       10.6068886694        4.4763584575
  C         8.6658147435       10.4784958776        1.9283342810
  C         8.3217078787       10.7785342294        5.9113946425
  H         9.7844497298        9.8967493686        4.5800030477
  H         9.4059586005       11.5790599292        4.1878304549
  H         9.0191186117       11.4383227153        1.7762962789
  H         7.8588034219       10.2785838482        1.2539757545
  H         9.4867538142        9.8053942808        1.8119613972
  C         7.4760328312        9.5767299364        6.2838133144
  H         9.2293280922       10.9721178237        6.5177936554
  H         7.7489143565       11.7270721650        5.7555760927
  C         6.6772207493        9.9336336128        7.6254039074
  H         8.1891907509        8.7189349407        6.2748936222
  H         6.7341138881        9.2693345660        5.5839862776
  C         5.4236708958       10.8296510358        7.4319451406
  H         7.4342732429       10.4359980159        8.2702913788
  H         6.4232057973        9.0245064977        8.1567145043
  C         4.1911425276       10.0548950152        6.9697576726
  H         5.2056282359       11.4377748617        8.3351908048
  H         5.7537419358       11.6754285661        6.8051877134
  C         2.9226029420       10.8924464938        6.7687900819
  H         3.9241763046        9.3236041884        7.6890293747
  H         4.2596564853        9.6289335869        5.9640882041
  C         3.1142673909       12.3226900777        6.1832723327
  C         2.4020519550       11.4718346688        7.9963628590
  C         1.8868965715       10.1052506588        5.9915664461
  C         2.8877058651       13.3879594028        7.0365581572
  C         3.6224573769       12.8340317903        4.9709391159
  C         2.3634820993       12.8093505265        8.1780840800
  C         1.8805140924       10.7956516473        9.1115787242
  H         2.2963422025        9.9574833941        5.0204689208
  H         1.7924598629        9.1378946252        6.4879731373
  C         0.4552382823       10.7643971150        5.8600071869
  S         3.1851610596       14.9967582453        6.4034185457
  C         3.7692420382       14.2064447244        4.9198293508
  H         3.9591411015       12.1372406766        4.2630418747
  C         2.0012506460       13.3766991181        9.3204655397
  H         1.7086807928        9.7468169936        9.0714813739
  C         1.5508115629       11.3539059109       10.3206799696
  H         0.5448676354       11.7734324711        5.6634646715
  H         0.0267663992       10.7828127915        6.8974271399
  C        -0.5470610633       10.1415215981        4.8323672014
  C         4.2169496876       14.8651699275        3.6587239170
  C         1.5103775026       12.7267732645       10.4083631165
  H         1.9150182803       14.4386014755        9.3065850082
  C         1.0572637720       10.9107628853       11.5464746398
  H        -1.6122884429       10.3893100933        4.9713720293
  H        -0.6082106387        9.0891287565        5.0770361968
  C        -0.1441151245       10.4550131780        3.3587614737
  C         4.0797016254       16.2833337607        3.4422905646
  C         4.5348298360       14.0452897199        2.5154149682
  C         0.9625367303       13.4171200104       11.6562863615
  C         0.7487361685       12.0042304697       12.3506046332
  S         0.9028535378        9.3743046904       12.3974658636
  H         0.8360374221       10.0321855597        3.1764290614
  H        -0.0165464783       11.5146506159        3.0466532353
  C        -1.2463936421       10.0036186119        2.3033158318
  N         3.7191571398       17.2388891612        4.3692927460
  C         4.3226413890       16.8448185108        2.1867691152
  C         4.6862684295       14.6101424020        1.2627284580
  H         4.6158916324       12.9726924550        2.5544258537
  C        -0.3729725185       14.1542370652       11.3840540057
  C         2.0225521532       14.3145819900       12.2963569494
  C         0.2377367476       11.5369922290       13.6360232007
  C         0.2592244617       10.1584386055       13.7873745749
  H        -1.7859737503        9.2153031959        2.7678390242
  H        -1.9775764078       10.7989542035        2.0890635432
  C        -0.7194866960        9.3728145231        1.0667915748
  S         3.6280949717       18.7240067949        3.6805597441
  N         4.1251441734       18.2259814060        2.1883099296
  C         4.7307708520       16.0831484614        1.0273308320
  H         5.1681621751       14.0417158940        0.5239067660
  H        -0.1629237878       14.8496274311       10.6079972699
  H        -0.5723969641       14.5866674769       12.3293251007
  C        -1.5511016973       13.2081091633       11.0945754917
  H         2.2973603979       15.0910327912       11.6338051680
  H         1.5223007945       14.9810424322       13.0274403763
  C         3.3478365211       13.6456760228       12.8557235681
  H        -0.1662716507       12.2457673641       14.3022007036
  C        -0.0797792262        9.4444039955       15.0865680303
  H        -1.4364118825        8.6547328872        0.6666202261
  H         0.1759105578        8.7866901413        1.3005786021
  C        -0.3938115820       10.4440595005        0.0466345032
  C         5.0685725567       16.7485277676       -0.2190085550
  H        -1.2187730190       12.3743482947       10.3742532860
  H        -1.8828509498       12.6945822323       12.0292672483
  C        -2.7409302506       14.0665815149       10.5937273731
  H         4.0664575823       13.4571115607       12.0194320474
  H         3.0031131035       12.7060635509       13.2864717770
  C         4.0511762058       14.3420661057       13.9280504968
  C        -0.2752252165        8.0621331307       15.2214965473
  C        -0.1457860324       10.2091137940       16.3626889602
  H        -0.3132469793       11.3749014717        0.5696206093
  H         0.5349921320       10.1277573139       -0.4749823997
  C        -1.3881143958       10.5182329750       -1.1746444389
  H         5.0286660793       17.8589949692       -0.1362038058
  C         5.3132845001       16.3067453323       -1.4834449792
  H        -2.3553057886       14.8608875751        9.9738117928
  H        -3.2203689411       14.4734873811       11.4374419437
  C        -3.6624119951       13.1189449908        9.7298442597
  H         4.0063541167       15.3619364366       13.7231311994
  H         3.4336089367       14.1751047154       14.7951093187
  C         5.4186388206       13.7767709510       14.3598147105
  N         0.0906193365        7.1623619239       14.2442034973
  C        -0.5723935294        7.4052394896       16.4284173058
  C        -0.5785586365        9.5527992070       17.6038885387
  H         0.0636872805       11.2850709577       16.4446850948
  H        -2.4341730949       10.6037580088       -0.8853949000
  H        -1.2307200380        9.7419952183       -1.9213190899
  H        -1.1833245279       11.4874734032       -1.6441632490
  S         5.4941362384       14.6724838913       -1.9546268631
  C         5.3294948815       17.3797621282       -2.5995607442
  H        -3.1500960299       12.6602124299        8.8160621338
  H        -4.0692520988       12.3152993165       10.3379900253
  C        -4.8368195469       13.9429984408        9.2917781890
  H         5.9433337467       13.4759189978       13.5071572664
  H         5.4249370157       12.8501924309       14.9034043643
  C         6.2806603264       14.7320013149       15.2716002844
  S        -0.0067059655        5.5901158462       14.8028325589
  N        -0.5408042946        6.0065560895       16.3161753614
  C        -0.7387449294        8.1180047202       17.6553537118
  H        -0.8323576203       10.1189725026       18.5045581675
  C         5.8065925689       15.3572885570       -3.5988453565
  N         5.6989220295       16.7246415925       -3.7211727843
  O         5.3159616368       18.6165695874       -2.5167576823
  H        -5.2471718483       14.5143191961       10.1743177045
  H        -4.5397302973       14.7145476011        8.5876524439
  C        -5.9660335151       13.1193292341        8.6399698117
  H         5.6279609634       15.1633641216       16.1184880320
  H         7.0515701972       14.2028243688       15.7597332118
  C         6.9297499131       15.9215739792       14.5481686678
  C        -1.0449967679        7.4604845099       18.8904087890
  S         6.4599808062       14.4349288338       -5.0155726510
  C         5.7846829852       17.4407238314       -5.0531099162
  H        -5.6123063835       12.7313294188        7.6841005207
  H        -6.2816066053       12.2039564453        9.2178623759
  C        -7.1947133243       13.9397320044        8.3821801364
  H         6.2429071586       16.5641235979       14.1122147840
  H         7.7031154355       15.5716683728       13.8659658260
  C         7.7747385282       16.7296057026       15.5200477543
  H        -0.8224044675        6.4099733148       18.8135449633
  C        -1.4425643944        7.8274510975       20.1878155707
  H         6.6065053156       16.8899589275       -5.6077441643
  H         6.0404646223       18.4442342188       -4.9950905333
  C         4.4736644595       17.3419743435       -5.8213244613
  H        -7.7543045178       13.5271465089        7.5040464058
  H        -6.8828750197       14.9416533135        8.1617522440
  C        -8.0395367542       13.9954311547        9.6019953003
  H         7.8371407383       16.1917723110       16.4956987956
  H         8.7425881097       16.7992870641       15.0503639916
  C         7.2950974357       18.1832372101       15.7478479219
  S        -1.9261690737        9.3961210301       20.6762338585
  C        -1.4635227608        6.8291058189       21.2402306796
  H         3.6234709665       17.3099799675       -5.0858988999
  H         4.5361266498       16.4198415658       -6.5749386360
  H         4.3133534920       18.2448512514       -6.4387913602
  H        -8.6757746681       13.1527286095        9.6456680874
  H        -7.5650383234       14.2592664162       10.4502677136
  H        -8.8002410024       14.7284640418        9.4672154358
  H         6.8544122535       18.2832849697       16.7729840143
  H         8.0889128009       18.9124441376       15.7640828083
  H         6.5440692328       18.6002864612       15.0568896137
  C        -2.0969671645        8.7159352769       22.2694901589
  N        -1.8905947478        7.3833012316       22.3533085319
  O        -1.1246918485        5.6237644601       21.1742253838
  S        -2.3569251962        9.5925213266       23.8094937848
  C        -2.0063195441        6.6067912584       23.5820573582
  H        -2.4109390534        5.6144266099       23.2352804971
  H        -2.7832024985        7.0883593353       24.2692632853
  C        -0.6497690794        6.4556977856       24.3809938115
  H         0.2310910517        6.7152896459       23.8060653895
  H        -0.5683072457        5.3490959599       24.5277334598
  H        -0.6079908100        7.0579963489       25.3093561865
