352
i =
  H        -3.6515238449       14.9715941650       16.4261420035
  C        -3.1241838057       14.0354261738       16.4800879730
  H        -3.9249139758       13.2840889347       16.6036879951
  C        -2.0375037190       14.0117239605       17.5497442574
  C        -2.5469562120       13.9377724964       15.0555798523
  C        -2.5156004771       14.1613411934       18.9523800600
  H        -1.5219121916       13.1423332066       17.4651521020
  H        -1.2888108785       14.7386383405       17.3085099457
  H        -1.6700485328       14.5559855042       15.1014588257
  H        -2.2182969615       12.9395651787       14.8290389567
  H        -3.2173573180       14.3228558881       14.2328498023
  C        -1.3713519960       13.9228357512       19.9412320320
  H        -3.2962392340       13.4183118892       19.0328240440
  H        -3.0602368951       15.0321315027       19.1444503189
  C        -2.0179993665       13.7257796362       21.3058424782
  H        -0.7848704063       13.0862872273       19.6829410686
  H        -0.5016303754       14.6212424169       19.7767387652
  C        -1.1079999849       13.1175081460       22.3694302263
  H        -2.7418811834       12.9187012250       21.2082494786
  H        -2.3842439707       14.6359154636       21.7603133584
  C         0.1883656353       13.8888660205       22.6056307792
  H        -1.6237736115       13.0969768678       23.3213292628
  H        -0.9722311102       12.0849636243       22.1498954804
  C         1.2269819578       13.0815097898       23.4258034730
  H         0.6127477692       14.1906672799       21.6766347865
  H        -0.0941599925       14.8315864302       23.1484847759
  C         1.5385313437       11.7645344453       22.6733364424
  C         0.8638712009       12.3851107323       24.6585438800
  C         2.4968609381       13.9249308052       23.5973994542
  C         1.4995009657       10.6757210818       23.5064108680
  C         1.8962680184       11.3585240540       21.3892805764
  C         1.0276262504       11.0175850346       24.7577778983
  C         0.4356476800       13.0644762182       25.8169173490
  H         2.8805283832       14.4252028443       22.6998035607
  H         2.3072553471       14.7711073893       24.2117925098
  C         3.7774617396       13.1801238642       24.1382942733
  S         1.9477555859        9.1826803827       22.7482928183
  C         2.1971717814       10.0196550010       21.3048676252
  H         2.0220129747       12.1379542972       20.6593662232
  C         0.6463023573       10.4281712270       25.9295467554
  H         0.4184936016       14.1759019923       25.8230100907
  C         0.0089703769       12.4430678770       26.9523893347
  H         4.0698859038       12.5223561789       23.3654291147
  H         3.5759292424       12.4098546012       24.9106172590
  C         5.0052388845       14.1551403321       24.3763807868
  C         2.7755342774        9.3988121972       20.0904910470
  C         0.0510932615       11.0756426725       27.0013695516
  H         0.7249677242        9.3893257915       25.9562052429
  C        -0.4040366050       12.8343313215       28.2009531509
  H         5.6491896834       13.6806416419       24.9910076970
  H         4.6904354349       14.9533899496       25.0392251647
  C         5.7266211141       14.6166625396       23.0944164140
  C         2.7465358185        8.0105545013       19.7560881265
  C         3.1544111191       10.2964968695       18.9533659694
  C        -0.2330107034       10.3883433415       28.3198566713
  C        -0.5622610099       11.7035825128       29.0138357205
  S        -0.8346657192       14.3286707931       28.9141949355
  H         6.2863127439       15.5279071631       23.3434024445
  H         4.9519683770       15.0425969215       22.4705111025
  C         6.5666263499       13.4469836202       22.3954087357
  N         2.3784666890        6.9703505353       20.6603382406
  C         3.0268142235        7.5403867577       18.4845310368
  C         3.4851103016        9.7937953150       17.7512977290
  H         3.4423197621       11.3395098294       19.1948536695
  C         1.0231896606        9.6492488322       28.9529857334
  C        -1.5376305039        9.5910197280       28.1805946781
  C        -0.9418929687       12.1223497559       30.2870724897
  C        -1.0793347595       13.5403707084       30.4183941622
  H         7.6163149566       13.6924341786       22.5436920021
  H         6.4501553700       12.6255530919       22.9992918681
  C         6.0775260047       13.2969431056       20.8838846743
  S         2.4851711013        5.5470279578       19.8726625539
  N         3.0447213261        6.0959783333       18.4757212321
  C         3.4428169780        8.3429196809       17.4625504289
  H         3.8885211361       10.4640312010       16.9489727424
  H         1.3036979580        8.7399977458       28.3474159812
  H         0.6010940951        9.1656021172       29.8618914894
  C         2.2263270287       10.5710708183       29.1276468229
  H        -1.3916402733        8.8898973977       27.3487761136
  H        -1.7088466437        8.9726472561       29.1371990984
  C        -2.8061848721       10.4336004980       27.8675459594
  H        -1.1485517208       11.4062032991       31.0472468369
  C        -1.5509012060       14.3125382168       31.6186933971
  H         5.5071132375       14.1716855309       20.5895832282
  H         5.4843177380       12.4503933955       20.6283547945
  C         7.3593761410       13.2712339137       20.0094616389
  C         3.6422262146        7.7728302925       16.1518445473
  H         2.4967647594       10.9012774737       28.1201041008
  H         1.9675871659       11.3940518455       29.6915444111
  C         3.4058045824        9.7705164051       29.7023207965
  H        -2.6777806084       10.9819183664       27.0021199510
  H        -2.9997257056       11.1050615987       28.6857856715
  C        -4.0886545723        9.6350830454       27.4515020964
  C        -1.6197612984       15.7453651347       31.7242458415
  C        -1.7548756552       13.5479700328       32.8814423553
  H         7.9646711471       14.0490086185       20.4010381240
  H         8.0264556842       12.3779254269       20.0873328794
  C         7.0894664361       13.5758535556       18.5131081360
  H         3.3241755241        6.7692111199       16.1974460016
  C         3.9448355952        8.2220656877       14.8519237668
  H         3.7968396721        9.1361173748       28.9289458938
  H         3.1127954662        9.1263621130       30.4755257376
  C         4.4598531466       10.6689609584       30.2003041607
  H        -3.9846839084        9.0891672235       26.5567426904
  H        -4.3807253614        8.9007748178       28.1892818435
  C        -5.3269275776       10.5691156545       27.1534621852
  N        -1.4721325457       16.6832976987       30.6866104383
  C        -1.7584876873       16.3789500610       32.9244383660
  C        -1.9099344924       14.1981482767       34.0799845441
  H        -1.7857186958       12.4987285947       32.9074297184
  H         7.6538339179       12.9737075136       17.8196386400
  H         6.0332198383       13.4383960213       18.2453826788
  H         7.2899781410       14.6320851294       18.4995956154
  S         4.3419800381        9.8280108194       14.3265045916
  C         3.7412287794        7.2667491143       13.7477382454
  H         4.6893007660       11.4034324963       29.4080825973
  H         4.2431234569       11.1709538587       31.1451992862
  C         5.7258370963        9.8255336905       30.2673617888
  H        -4.7899140856       11.2654425010       26.5044194542
  H        -5.6911240409       11.0235709126       28.0650142787
  C        -6.2798208836        9.9887289178       26.1510887381
  S        -1.5332533416       18.1984913326       31.2144488626
  N        -1.7965776981       17.7631245031       32.8097066145
  C        -1.9113094542       15.7415686788       34.1874196440
  H        -1.9894645596       13.5283135817       34.8969123497
  C         4.2625183508        9.2112192582       12.6982549191
  N         4.1804027526        7.8558237342       12.6446365838
  O         3.4800363200        6.0765142959       13.9071765160
  H         6.4617596944       10.5377506340       30.6699161034
  H         6.0298241845        9.4934132880       29.2981260524
  C         5.7853610021        8.6311843237       31.2953869740
  H        -5.6840970518        9.5338349807       25.3419576347
  H        -6.8817093206        9.2241550557       26.6929589873
  C        -7.1291373416       11.0591428690       25.5374750093
  C        -2.0992521482       16.5858707880       35.3198693227
  S         5.0054087575       10.0825235278       11.3793383353
  C         4.3984507041        7.1424822503       11.3410852145
  H         6.5457171831        9.0324366555       31.9323359076
  H         4.8242035568        8.5534868815       31.7660246968
  C         6.2245229731        7.2899812415       30.7938436342
  H        -6.7325519208       11.6420867349       24.7147494030
  H        -7.3098742609       11.8221976559       26.2228593203
  C        -8.5481879683       10.5241653911       25.1409523837
  H        -1.8853423908       17.6661534314       35.1469939242
  C        -2.6509809973       16.2839302436       36.5461112583
  H         5.2329901384        7.5483488912       10.7850822728
  H         4.6993793415        6.0786477034       11.4366227145
  C         3.1403145415        7.2553249073       10.5426887621
  H         7.3083006442        7.4296091947       30.6217326686
  H         5.8720528020        7.1760024351       29.7792063409
  C         6.0430859540        6.0784407563       31.7819900621
  H        -9.0367445777       11.2951993351       24.5418893859
  H        -8.4732604160        9.5721516878       24.6550993991
  C        -9.4394836442       10.3507611287       26.3870005293
  S        -3.3395722613       14.7635141770       36.9397262435
  C        -2.7660237870       17.3867351603       37.5556245346
  H         3.3301849709        7.1611192098        9.4717167026
  H         2.4556465289        6.3852909042       10.7453134185
  H         2.4727963338        8.0606422073       10.9092906697
  H         6.7186363573        6.0929603779       32.6290066561
  H         6.1491219125        5.0997567837       31.2477742965
  H         5.0886584541        6.0424672230       32.2488877534
  H        -9.1480774744        9.6677615092       27.1031668916
  H       -10.4000263248       10.0471577472       26.1343046935
  H        -9.5146294933       11.3467196510       26.8200195601
  C        -3.7886358437       15.5255191022       38.5028614056
  N        -3.5393932113       16.8455462918       38.5799111442
  O        -2.2759439370       18.4637061590       37.4379969668
  S        -4.8278232812       14.7272329194       39.6927941213
  C        -3.6203851348       17.7128835857       39.7346181073
  H        -3.8048968943       18.7374709472       39.4419058573
  H        -4.5517805624       17.4179276557       40.1684105260
  C        -2.3912543679       17.5802792564       40.6358055818
  H        -2.0100909154       16.5593338375       40.5582172598
  H        -1.8101628994       18.4407477454       40.3847708256
  H        -2.6956426029       17.6509394012       41.6724920052
  H         7.9161151776       11.8217951915        3.6865872571
  C         8.2244249733       10.7748726140        3.7002016018
  H         7.2974600103       10.2029068654        3.6212754006
  C         9.0329142306       10.4808861408        5.0011749761
  C         9.0689036641       10.5375894597        2.4710312266
  C         8.2603033775       10.8156199524        6.2331216285
  H         9.2766210037        9.4129535072        5.0453021291
  H         9.9110550584       11.1130936600        5.1025702500
  H         8.5149607582       10.6893182961        1.5595333954
  H         9.4677456149        9.4983479833        2.4061560415
  H         9.9374744833       11.2312733330        2.4623769377
  C         7.3803749076        9.7031063863        6.7707456717
  H         8.9325553913       11.1207294501        6.9882898620
  H         7.6617856052       11.6888096645        6.1119623760
  C         6.5288032399        9.9972814856        8.0427949698
  H         8.0331034957        8.8585360595        7.0591624465
  H         6.6402732254        9.4497955971        5.9939446044
  C         5.3308747694       10.8841331608        7.7998537118
  H         7.1072569609       10.3660262315        8.8744661798
  H         6.0598342659        9.1270868083        8.3695042794
  C         4.0201176208       10.0882857857        7.4377856578
  H         5.0582496751       11.5315671208        8.5707267627
  H         5.5412087568       11.5689087693        7.0754231754
  C         2.7406122799       10.9121583565        7.2444404317
  H         3.8432354806        9.2906338807        8.1824209972
  H         4.1775998890        9.6810290354        6.4621715034
  C         3.0840659424       12.2109609377        6.5545050938
  C         2.3573540889       11.5645311824        8.5323302031
  C         1.5760372972       10.1444154106        6.6536071590
  C         2.9750867409       13.3145443979        7.4210886822
  C         3.3289147517       12.6608750805        5.2604298383
  C         2.4493525875       12.9133499828        8.6632438227
  C         1.9090463750       10.9264589502        9.6850245074
  H         1.8806110679        9.6520662987        5.7028055203
  H         1.3668570516        9.3802920588        7.2915527088
  C         0.3586776527       11.0803525499        6.3535440209
  S         3.3945759751       14.8418161377        6.7053989814
  C         3.5690586929       13.9901187011        5.1928648017
  H         3.4608623361       11.9255256122        4.4911948185
  C         2.0504259514       13.5256612772        9.8185825559
  H         1.8337566966        9.8430272093        9.6629505408
  C         1.4305817524       11.5414655724       10.7942416079
  H         0.6046717487       11.9938557423        5.8961931518
  H        -0.1686886055       11.3681259926        7.2841120175
  C        -0.6421525920       10.4037555989        5.4149570385
  C         3.9825949935       14.6905177128        3.9039843484
  C         1.5367020785       12.8824908964       10.8986061995
  H         2.1843403151       14.5910984063        9.9461916433
  C         0.9936583061       11.1517370838       12.0226237856
  H        -1.6213515806       10.9075935592        5.4726527431
  H        -0.9214907727        9.3872922785        5.6504609089
  C        -0.2514897972       10.5911461178        4.0191646260
  C         3.9728815113       16.1010196772        3.5747413588
  C         4.4106276093       13.8443827450        2.7302698379
  C         1.0706338416       13.5760386551       12.1569402024
  C         0.8087053306       12.2421592355       12.8578555352
  S         0.8822588491        9.6640759887       12.8541072526
  H         0.7087322931       10.0166617585        3.7913593660
  H         0.1181408214       11.6117279935        3.8184335625
  C        -1.4418636755       10.3745761149        3.0297739586
  N         3.4664568770       17.1525598390        4.3878312463
  C         4.5846970033       16.6038168704        2.4321949738
  C         4.9320823640       14.3440318126        1.5628049228
  H         4.5357585744       12.8278972449        2.9078400298
  C        -0.1922490423       14.4575183279       12.1241603338
  C         2.3473081533       14.3816696200       12.7634161781
  C         0.5121416271       11.8363482413       14.1784128830
  C         0.4358190942       10.4508409205       14.3172901227
  H        -2.1589846151        9.7973722330        3.5272344928
  H        -1.9905103499       11.2235611061        2.8969416617
  C        -0.9648586567        9.5086454023        1.8496236806
  S         3.9121151915       18.5477278013        3.7138680547
  N         4.5711261297       17.9952240706        2.3785423365
  C         4.9825424623       15.8129689186        1.3269626707
  H         5.3660019676       13.6751432808        0.8615164429
  H         0.0732930946       15.3581688890       11.6246604639
  H        -0.5408531224       14.6553095632       13.1477827286
  C        -1.3054932473       13.5627787473       11.5450026995
  H         2.5864371980       15.1467656351       11.9907881901
  H         2.0527158275       14.8904198334       13.6863842281
  C         3.5668291264       13.5506058311       13.1628660736
  H         0.2393484577       12.5650557960       14.8541084997
  C         0.1796551459        9.7090017279       15.6621369823
  H        -1.7637515279        9.0661292161        1.2383865560
  H        -0.2858770813        8.7717681038        2.2423390502
  C        -0.2435690606       10.3499784807        0.7813931279
  C         5.2368144167       16.4593359969        0.1281280295
  H        -1.0413282325       13.0416348004       10.6847429977
  H        -1.5619306900       12.8789236934       12.3453319721
  C        -2.6046807605       14.2657291655       11.2560989390
  H         4.1285705571       13.3774890262       12.2132907383
  H         3.2931593284       12.5405546352       13.5569102771
  C         4.4327284536       14.1377517824       14.2480661785
  C         0.1639448622        8.3339898213       15.8714166001
  C         0.0172555673       10.5006528442       16.9148106108
  H        -0.2920491985       11.4328337938        0.9336844454
  H         0.8119074656       10.0743837100        0.5856622557
  C        -1.0470717620       10.2591258225       -0.5420867366
  H         5.1521516146       17.5635109929        0.1692091040
  C         5.4753964779       16.1425330394       -1.1797088485
  H        -2.2829340776       15.0519071056       10.5659223381
  H        -3.0660017190       14.6625339757       12.1617543476
  C        -3.6501920089       13.3242732467       10.7310722568
  H         4.3431040191       15.2101960240       14.2035523241
  H         4.1163193601       13.7639107153       15.2206249163
  C         5.8567988167       13.6286909719       13.9698339840
  N         0.3578708882        7.4818684410       14.7923991342
  C        -0.0515209193        7.7677770328       17.1063112697
  C        -0.2590318701        9.9129649955       18.1555534791
  H         0.0471055994       11.5747079596       16.8974894991
  H        -2.0080768874       10.6837869350       -0.6214259203
  H        -1.2630935434        9.2572970356       -0.8770641706
  H        -0.4707211353       10.7278210990       -1.3969114278
  S         5.6090924585       14.5149018070       -1.8171464396
  C         5.6807613778       17.2568924805       -2.1438213341
  H        -3.2358977320       12.7114111346        9.9509291312
  H        -3.8867393467       12.6304880415       11.5242219557
  C        -4.9300339329       14.1595853065       10.3084543215
  H         6.0705501249       14.0696218668       12.9694116157
  H         5.9233819938       12.5738448345       13.7861806874
  C         6.8469649046       14.1800370792       15.0231082480
  S         0.1609875937        6.0043038972       15.4374334886
  N        -0.0415113223        6.3681040173       16.9896805486
  C        -0.4393201594        8.4705409712       18.2592066279
  H        -0.3414991057       10.5296483012       19.0533622448
  C         5.9706934730       15.3789861454       -3.3316948724
  N         6.1336266179       16.7323537082       -3.2579849478
  O         5.5206450142       18.4766117055       -1.9030800353
  H        -5.5096644536       14.3620212270       11.2233685927
  H        -4.5766658262       15.0597824127        9.7636935685
  C        -5.9182156659       13.2498469256        9.3793510902
  H         6.3616553521       14.5046449188       15.8626071253
  H         7.4745357269       13.2896755806       15.3483909291
  C         7.7358757999       15.3285185303       14.4572048374
  C        -0.7106460442        7.6699126035       19.4339321116
  S         6.6548897359       14.7226198304       -4.7753822848
  C         6.3234438284       17.6008578048       -4.4248892515
  H        -5.2509827895       12.5655149433        8.8573164251
  H        -6.3808021791       12.6316572138       10.1416850746
  C        -6.9788663147       13.8841752392        8.4184484144
  H         8.0008469570       14.9976721439       13.4741474762
  H         8.6861899568       15.3578147142       14.9327370103
  C         7.0889481507       16.7921595488       14.2986792139
  H        -0.1943559185        6.7186886872       19.4500080789
  C        -1.2570189380        8.0348638633       20.6680086277
  H         7.0053478911       17.2791491264       -5.2722061757
  H         6.8525898537       18.4751347657       -4.1319912918
  C         4.9104973176       17.9164951614       -5.0217999431
  H        -7.3287520644       13.1203904794        7.6547627281
  H        -6.7913581681       14.8656206713        7.9347105009
  C        -8.1512322796       14.0363903665        9.3223962450
  H         7.6636300495       17.2569539917       13.4909355684
  H         6.0584792129       16.7349848829       14.0062954636
  C         7.5206443967       17.6077557060       15.5610925351
  S        -1.9795163780        9.4955176122       20.9598996255
  C        -1.3403572462        6.9758369258       21.6919348009
  H         4.1171289438       18.2950703583       -4.4274589660
  H         4.4358584297       17.1278063456       -5.5511186830
  H         4.9986618506       18.7463017624       -5.7288913507
  H        -8.4009705232       13.0691253713        9.5939043552
  H        -7.8777007091       14.5895194183       10.1507269203
  H        -9.0091156650       14.3847579601        8.8049562624
  H         6.8906507854       18.3837234179       15.8490155873
  H         7.6663319977       17.0312141644       16.5145103943
  H         8.4125793871       18.1883754151       15.2698995531
  C        -2.3136093809        8.7982613252       22.6251991491
  N        -1.9837828194        7.5019128243       22.7424188184
  O        -0.9104417510        5.8453868001       21.5444741432
  S        -2.8701216818        9.6570454444       24.0089128969
  C        -2.0367530130        6.7805377531       23.9495254700
  H        -2.1437734366        5.7347662244       23.6899066111
  H        -2.9336193940        7.0284912751       24.4952048479
  C        -0.9257037141        6.9536033662       24.9508021459
  H        -0.6682292066        7.9269789337       25.1140198065
  H        -0.0151831493        6.4392189587       24.5910180379
  H        -1.2411093418        6.6576690329       25.9193277840
