352
i =
  H        -3.0870560963       15.1302979211       16.4401480418
  C        -3.1577022877       14.0473848692       16.4587340445
  H        -4.1344346876       13.8654679163       16.9316935933
  C        -2.1896748682       13.4121653158       17.4559684490
  C        -3.1606740734       13.4302911936       15.0402857715
  C        -2.3148066413       13.9805125382       18.9100339086
  H        -2.4645700242       12.3320380186       17.4274338270
  H        -1.2443167808       13.5936508448       17.0008393428
  H        -4.1421855162       13.1803733059       14.6342268266
  H        -2.5428681689       13.9027553422       14.2836891612
  H        -2.7144972562       12.5201052010       15.2245109474
  C        -2.0796713535       12.8171747893       19.8116226214
  H        -3.1938656531       14.5059405130       19.1677042926
  H        -1.4316926443       14.7121418472       19.0229890702
  C        -2.5133289290       13.1636050391       21.3065404165
  H        -2.7282477466       11.9444694973       19.5878886384
  H        -1.0681353991       12.4471428957       19.8173881406
  C        -1.4940207113       12.6403053541       22.3279909773
  H        -3.3904843079       12.5638901980       21.5353030839
  H        -2.6623166022       14.2769831162       21.3625003299
  C        -0.2209488600       13.4626544182       22.4188839039
  H        -1.9087620859       12.6992055170       23.3776868608
  H        -1.4645591695       11.5544758957       22.1315512947
  C         0.9373843945       12.7762958039       23.1640649524
  H         0.1542027138       13.7512635904       21.3745814044
  H        -0.3732631665       14.4550548701       22.8211615673
  C         1.1828947236       11.3854183630       22.5817856034
  C         0.5693698154       12.0990854866       24.5037786148
  C         2.3076711602       13.4789547615       23.2269963133
  C         0.9968358581       10.3266150708       23.4695425901
  C         1.7505072893       10.9274734235       21.4277533803
  C         0.4683492279       10.7846913990       24.6137554307
  C         0.1099202483       12.8006402826       25.5761016200
  H         2.8445934562       13.5410588931       22.2367955944
  H         2.1323642153       14.4658991626       23.5040809288
  C         3.3141435089       12.9383483531       24.2443747290
  S         1.6526054466        8.7986548355       22.8837653537
  C         2.0112138816        9.6100327437       21.3460438891
  H         2.0254856800       11.6639972377       20.6993903111
  C        -0.0120278381       10.2810433957       25.7988242209
  H         0.1509600563       13.8317743339       25.3581532386
  C        -0.2501080751       12.3354174026       26.7833852059
  H         3.5441077835       11.8958584338       24.0354789211
  H         2.7912982066       12.9490788977       25.2089006226
  C         4.6610327209       13.6634011197       24.4004903784
  C         2.4756533334        8.8505423708       20.0834515260
  C        -0.3842346526       10.9886226202       26.9702731369
  H        -0.0108898744        9.1802092438       25.7643429664
  C        -0.6711736215       12.8194200441       27.9730009915
  H         5.2609007342       12.9732614706       24.9765842318
  H         4.5464680406       14.6088513907       25.0308497989
  C         5.3375455862       14.0433125830       23.0433166081
  C         2.3616634435        7.4277662580       19.9228363522
  C         2.8400566904        9.6182176744       18.8766638622
  C        -0.8175086612       10.4114820224       28.2434219411
  C        -1.0075277571       11.8256133885       28.9124306893
  S        -0.9491756649       14.3986136973       28.5930334173
  H         6.3741708366       14.1974946384       23.2403414063
  H         4.8229405280       14.9309880153       22.6303579791
  C         5.4386607123       12.8467255793       22.0087183241
  N         2.0698025630        6.5322075832       20.9077496994
  C         2.7149088927        6.8290520409       18.7136195344
  C         3.2619105749        8.9763738246       17.6990916307
  H         3.1543675892       10.7351752336       18.8880494487
  C         0.2909923825        9.5688563033       28.8742798748
  C        -2.1739567829        9.7009763732       28.1745204698
  C        -1.4848150096       12.3726738493       30.1267137984
  C        -1.4281542446       13.7636433124       30.1510960671
  H         6.2786785080       12.2892463799       22.2641326466
  H         4.5618481187       12.2052577478       21.8369916735
  C         5.8038717521       13.3895886704       20.5942895623
  S         2.0294542807        5.0622025002       20.2339032755
  N         2.4067918866        5.4833466075       18.7151702286
  C         3.1760865990        7.4976598626       17.5449079775
  H         3.5758354386        9.5413582381       16.8625552920
  H         0.5511209599        8.7521081371       28.2263026755
  H        -0.0715626170        9.2176819433       29.7819826798
  C         1.7095680986       10.3077845100       29.1293780799
  H        -2.1920890710        8.6875348200       27.8426361195
  H        -2.6303476381        9.5601863206       29.1878588735
  C        -3.2696939468       10.3268295267       27.3285732879
  H        -1.8039791188       11.7227342962       30.9297961046
  C        -1.6758227320       14.5819393816       31.3619100575
  H         5.1604542803       14.2759152285       20.4512643335
  H         5.6029004878       12.6240360234       19.9210807321
  C         7.2835670415       13.6365783746       20.3910979735
  C         3.4368188713        6.7065572698       16.4684628838
  H         2.0358959421       10.9518184218       28.3426963956
  H         1.5577481413       10.9815978303       29.9333461201
  C         2.7347347962        9.2511091782       29.4470791383
  H        -3.0532085087       10.3906592191       26.2878297416
  H        -3.4469036243       11.3383965033       27.7088385041
  C        -4.6719016127        9.7294141767       27.5268583611
  C        -1.6299029425       16.0112543651       31.4953584784
  C        -1.9187445079       13.8488302118       32.6249273667
  H         7.5981378773       14.6032953277       20.7855401454
  H         8.0270651304       12.8954495658       20.7433345155
  C         7.5058941825       13.6831035173       18.8757536819
  H         3.5325648952        5.6681898999       16.6844445143
  C         3.7576751272        7.0799647342       15.1578046985
  H         2.9589336099        8.6289175865       28.4923778446
  H         2.3168100296        8.5749500588       30.2544117013
  C         3.9901586820        9.9331568065       29.9862949180
  H        -4.8539434250        8.9771121121       26.7448071305
  H        -4.8692368015        9.2842770007       28.5041845747
  C        -5.7004306334       10.8065242752       27.4571827878
  N        -1.3562847500       16.8715220754       30.4351159849
  C        -1.8834472315       16.6640419852       32.7024375493
  C        -2.2268165149       14.5119588145       33.8078244837
  H        -1.8685063258       12.7861368020       32.7877966251
  H         8.4088515978       14.2232579290       18.5133897790
  H         7.6974854095       12.6571146923       18.6322770432
  H         6.7176901693       13.9562061925       18.2094828443
  S         4.0965433979        8.6782802034       14.5944871267
  C         3.7191077071        6.0624995329       14.1371471030
  H         4.2370279654       10.7246729280       29.2683769340
  H         3.7456754023       10.4299478285       30.8907427929
  C         5.1984397344        9.0456054492       30.0217738818
  H        -5.5067803066       11.5288967485       26.7101345025
  H        -5.7052847266       11.3068068298       28.4333758971
  C        -7.0928133488       10.1953515479       27.2281082957
  S        -1.3832313621       18.4397928964       30.9810923167
  N        -1.7432362117       18.1081354412       32.5068933592
  C        -2.2339896263       15.9732771271       33.8906016964
  H        -2.3474847573       13.8910381252       34.7336336236
  C         4.1154022196        7.9910532979       12.9791509527
  N         3.8526095615        6.6836400955       12.9311557461
  O         3.3942718539        4.9073002505       14.3856318198
  H         6.1067694507        9.6503989658       30.2359552481
  H         5.2592969117        8.4917792063       29.0863217386
  C         5.1394611549        7.9906446832       31.1512926012
  H        -7.0886367306        9.1104102058       27.4373715068
  H        -7.8799759784       10.6701346747       27.9430503276
  C        -7.5304492528       10.5033367803       25.8180971063
  C        -2.4716644327       16.7570621507       35.0950415125
  S         4.5360614858        8.8674314664       11.4614153830
  C         3.5490871119        5.9691197011       11.6682002094
  H         5.1227152811        8.5160333880       32.1260448166
  H         4.3059685160        7.3524156922       31.0027940007
  C         6.3985817446        7.1374925170       31.1781996203
  H        -6.8106302723        9.9748420993       25.3290945186
  H        -7.2946176079       11.6063581008       25.6161655799
  C        -8.9086733745       10.0063169198       25.4041229736
  H        -2.1194678861       17.7442458318       34.9332429729
  C        -3.1006985074       16.5017775972       36.2773235517
  H         4.1096063025        6.2501752365       10.7039788974
  H         3.7614635630        4.9155000136       11.9418051168
  C         2.0662116861        6.2286158418       11.3411562421
  H         6.6817461120        6.7783599330       32.1321325701
  H         7.2066279909        7.8020443274       30.8604377092
  C         6.2591676680        5.8644472868       30.2190910302
  H        -9.2732181323       10.6303362779       24.5501751150
  H        -8.8650970324        9.0506798229       24.8691955184
  C       -10.0858639074       10.1065539425       26.4256731279
  S        -3.6176167161       14.9887255124       36.9053870141
  C        -3.2147473004       17.6498091010       37.1998032804
  H         1.8781558732        6.8679210129       10.4663632316
  H         1.4801772949        5.2688598794       11.4458500603
  H         1.6676176216        6.7625188275       12.1946647603
  H         7.2687901664        5.4416063161       30.2250101294
  H         5.8591490849        6.1378595919       29.1872340838
  H         5.4563877513        5.2400223223       30.7246903385
  H        -9.7298612095        9.6150129257       27.3859176783
  H       -10.9733606225        9.5156936412       26.1588057917
  H       -10.5889996681       11.0416985163       26.7088294478
  C        -3.8920248476       15.8354278768       38.4051212219
  N        -3.7372555288       17.1895268229       38.3538779833
  O        -2.8304058830       18.7583061047       36.8607958766
  S        -4.4084692396       15.0797806630       39.9127376789
  C        -3.7046101961       18.0394408731       39.5439809071
  H        -3.7850062346       19.0402065292       39.2021003612
  H        -4.5091757484       17.7382873467       40.2407975228
  C        -2.3745308769       17.9415031744       40.3205540974
  H        -1.5050365696       18.4156293422       39.8991078727
  H        -2.4940235467       18.6023820879       41.2114631018
  H        -2.1408617680       16.9692544364       40.6337585442
  H         7.5025254893       11.5250205892        3.9033479321
  C         8.0446539528       10.6313876247        3.8560633293
  H         7.2865359408        9.8691035625        3.7398790470
  C         8.8903031239       10.4398635895        5.0763340223
  C         8.8674385024       10.7985953759        2.5681787531
  C         8.0690739819       10.6781236402        6.3591711371
  H         9.2028432093        9.4486624521        4.8959313846
  H         9.7835473700       11.0448514607        5.1550467488
  H         8.1683109968       11.3338214364        1.8740781703
  H         9.1278969494        9.8123594800        2.3189228705
  H         9.7999764964       11.3598673314        2.6286395936
  C         7.2588252775        9.4453467436        6.7573224091
  H         8.7689357048       10.9615770482        7.0915918225
  H         7.3827725261       11.5635213078        6.2286281666
  C         6.6035710884        9.6283497901        8.1891958184
  H         7.7901688911        8.5006176959        6.6198451782
  H         6.4743833148        9.3258023663        6.0492959779
  C         5.3750561401       10.6290460451        8.1931526403
  H         7.2538024038       10.1169759028        8.9239819892
  H         6.2148295763        8.7697182978        8.7247496309
  C         4.0495946649        9.9646260713        7.6817919529
  H         5.1740280712       11.0372375974        9.1922144525
  H         5.6546352729       11.5544029071        7.6828208904
  C         2.8773861092       10.8759375727        7.3275678089
  H         3.7390397686        9.1709088836        8.4221229530
  H         4.2844915873        9.3520274078        6.8013876739
  C         3.1696399397       12.2416025418        6.6447112013
  C         2.5022471625       11.5525595353        8.6109113824
  C         1.8211874078       10.0638606754        6.5494169504
  C         2.9712698641       13.3223342778        7.4717232810
  C         3.6675798772       12.6283672351        5.3957253951
  C         2.5813573387       12.9126715930        8.7146489389
  C         1.9427038710       10.9721525931        9.7653628880
  H         2.2762433943        9.7133159686        5.6750587134
  H         1.5252096328        9.1846424442        7.1096336570
  C         0.5706370677       10.9495186746        6.3010067129
  S         3.2740431871       14.8458822987        6.6687642419
  C         3.7022676716       13.9690250021        5.2158066295
  H         3.9697053630       11.9426276785        4.6089416599
  C         2.0449227217       13.5547024983        9.8472469838
  H         1.7203720735        9.9431542295        9.6643788741
  C         1.6300043979       11.5369701130       10.9459872741
  H         1.0246768476       11.7917924493        5.8176290424
  H         0.1622795124       11.3781439712        7.2259712647
  C        -0.4787109356       10.2452404188        5.4240040959
  C         4.1924386577       14.6620514550        3.9905097714
  C         1.6826216971       12.8952990695       11.0567934511
  H         1.8110566352       14.6344995144        9.7352366553
  C         1.1860214687       11.0295482323       12.1078343225
  H        -1.4176921006       10.8328520143        5.4187542451
  H        -0.8055824601        9.2034752989        5.7917151892
  C         0.0594062127       10.1506625310        3.9433329939
  C         4.1831214000       16.0444554005        3.7386483001
  C         4.7037189558       13.8283619287        2.8863831235
  C         1.2038540839       13.4846811901       12.3255767835
  C         1.0358293606       12.1054567655       13.0298769612
  S         0.8732947430        9.5116551696       12.8141087929
  H         0.7182859748        9.2893376385        3.8486793449
  H         0.7215942959       10.9594668359        3.7169265937
  C        -0.9675573893        9.9346946501        2.9408994018
  N         3.7783649206       17.0067830480        4.7165621466
  C         4.5146050003       16.6636448418        2.5711780748
  C         5.0498840581       14.4274901629        1.6427375206
  H         4.8060326115       12.8177603784        2.9643115025
  C        -0.1583498232       14.2675228887       12.0739507423
  C         2.3218198471       14.2324237120       13.1041152954
  C         0.5937313607       11.6074794740       14.2913109178
  C         0.4973689347       10.2242411062       14.3089375988
  H        -1.7185011271        9.1992247003        3.2953995951
  H        -1.5689260161       10.8867671663        2.9034942500
  C        -0.4224730772        9.4768387895        1.5806335569
  S         3.6640501194       18.4755457473        4.0130042824
  N         4.1670845283       18.0249733244        2.5010380060
  C         4.8786788314       15.9371893343        1.4051246631
  H         5.2807508428       13.7694148669        0.8068864237
  H        -0.1137228218       15.2064119202       11.5379718646
  H        -0.5599625210       14.4916059220       13.0425419877
  C        -1.2319909215       13.4060248748       11.4050608504
  H         2.8176672924       15.0826665628       12.5076235840
  H         1.7976723685       14.6843766348       14.0001074864
  C         3.4189968538       13.3249927488       13.7275326740
  H         0.4990721970       12.3261824019       15.0746234302
  C         0.2305734683        9.4036765834       15.5673838064
  H        -0.1270676509        8.5032293210        1.8040757339
  H         0.4533327526       10.0468628039        1.2682237091
  C        -1.4497449262        9.2457126724        0.3937857004
  C         5.0695345630       16.6439642872        0.1540147540
  H        -0.8388424919       12.9710464748       10.5035378345
  H        -1.4851492799       12.5183779245       12.0706893415
  C        -2.4651110856       14.2139278111       11.0300878268
  H         3.7041907915       12.5311572487       13.0211387100
  H         2.9966666070       12.8240433974       14.5690869802
  C         4.6423560152       14.0065839474       14.3750517365
  C         0.1884022577        8.0053372404       15.6443115258
  C        -0.0586010413       10.1832560439       16.8572410443
  H        -1.1723418645        8.2887256626        0.0146203715
  H        -2.4754859331        9.0992925756        0.7258612492
  C        -1.3083069564       10.2417885857       -0.6886439655
  H         4.9032248772       17.6941299197        0.1812976185
  C         5.1610418227       16.0496556402       -1.1216692336
  H        -2.2952809189       14.9835716825       10.3407412663
  H        -2.9045763913       14.6519048865       11.9733869981
  C        -3.5301726237       13.3675895173       10.2879492466
  H         4.9769588469       14.6984365575       13.4993989360
  H         4.2751899569       14.6931512095       15.1885357366
  C         5.7298854309       13.0906140083       14.8774745467
  N         0.5032769798        7.1561094948       14.6188876400
  C        -0.1316415316        7.3563721164       16.8283524104
  C        -0.3809598687        9.5264544314       18.0594093328
  H        -0.1521726137       11.2830308791       16.7922138409
  H        -1.6419834442        9.9435287044       -1.6513117414
  H        -0.2547677461       10.4693695199       -1.0073957190
  H        -1.6839934914       11.2447017016       -0.5226389046
  S         5.4674783126       14.4308496687       -1.5230675058
  C         5.1687409482       16.9805019967       -2.2365909755
  H        -3.6213876843       13.6916949530        9.2689773297
  H        -3.0504691757       12.4004793573       10.0551078808
  C        -4.9160335190       13.2324309341       10.8478169981
  H         5.4553318024       12.1100651557       14.6738795493
  H         5.7549240265       13.0730609698       15.9427950144
  C         7.1575458345       13.4355250828       14.2746413417
  S         0.3841887147        5.6382360399       15.1207525639
  N        -0.1104959220        5.9999454822       16.7159160849
  C        -0.4439998256        8.0593412321       18.0318256901
  H        -0.5874483715       10.0642894247       18.9464009208
  C         5.5830426503       14.9660304425       -3.1814969106
  N         5.4451521088       16.2791439962       -3.3496785440
  O         4.9083615150       18.1937422309       -2.2175008773
  H        -4.7709787219       12.6540585251       11.7564981763
  H        -5.3210930894       14.1938781237       11.0772581408
  C        -5.8328229921       12.4858406487        9.9114260634
  H         7.9325622600       12.9439884173       14.7793785781
  H         7.2814514472       12.9023036338       13.3053870607
  C         7.5306960659       14.8913780582       13.9189523558
  C        -0.7312041125        7.1965970052       19.1679404746
  S         6.0344503965       13.8566892084       -4.5073943300
  C         5.3097570525       16.9427138352       -4.6424469651
  H        -5.3595991512       11.6955690753        9.3648864973
  H        -6.6074068305       12.0130011214       10.5756942138
  C        -6.5186075166       13.4414349543        8.8627667930
  H         6.8421480050       15.5120458709       13.3128220924
  H         8.3977640490       14.8158689720       13.3198268659
  C         7.9091771705       15.6692355168       15.1683385228
  H        -0.2527909893        6.1949953172       19.1003984097
  C        -1.4527146336        7.5555591742       20.2707677012
  H         5.9641042360       16.4661116508       -5.3098450288
  H         5.6071810924       18.0137557362       -4.5260775916
  C         3.8998259354       16.9753033967       -5.0639031104
  H        -6.6775410534       12.7836095485        7.9564162713
  H        -5.9008934496       14.3637010387        8.6606738828
  C        -7.9704140384       13.7919145348        9.1624450713
  H         6.9399322839       15.7321511257       15.7089340499
  H         8.6373380854       15.1559049408       15.7826147551
  C         8.6055689833       17.0107771891       14.9266868167
  S        -2.0415563571        9.1004903056       20.7922955776
  C        -1.4935267405        6.4495469719       21.3202714096
  H         3.7099612084       16.2666103382       -5.8331516112
  H         3.6333112777       17.9457480720       -5.5157082352
  H         3.1245338277       16.6443788295       -4.2850441201
  H        -8.3079865704       12.9661225211        9.6840577737
  H        -8.0213746719       14.6848355017        9.8063212581
  H        -8.6068420167       13.8733581796        8.3327152363
  H         8.9570763777       17.4308977171       15.9112167708
  H         9.5048830360       16.7792706935       14.2838225504
  H         8.0762231280       17.7403827964       14.3939710183
  C        -2.5113369030        8.2093557265       22.2808364624
  N        -2.1827784074        6.8949634239       22.4179771028
  O        -1.0643860442        5.3090905646       21.1460783455
  S        -3.3760148736        8.9910151647       23.5714721673
  C        -2.2511044772        6.1233067004       23.6331954267
  H        -2.7292202379        5.1684118785       23.4410598575
  H        -2.8653524252        6.5704147702       24.4575181623
  C        -0.9162806291        5.9845263754       24.2398458111
  H        -0.8629673451        5.0987360882       24.9643799021
  H        -0.7525379141        6.7855182995       24.9682071231
  H        -0.0718025234        5.9978507537       23.5655187659
