352
i =
  H        -2.7325471058       15.6506123642       15.8345901334
  C        -3.1682128817       14.8428695239       16.5003664723
  H        -4.1103041431       15.2484770384       16.8701050297
  C        -2.1644915461       14.6254574874       17.6015363908
  C        -3.3123329884       13.5905824708       15.7235248167
  C        -2.7599530562       13.9236688320       18.8966368745
  H        -1.3805752300       14.0149248263       17.3072999899
  H        -1.8219905808       15.5090806785       17.8815582266
  H        -2.4095844651       12.9248757507       15.7365885280
  H        -4.0972735943       12.9261604285       16.1587583050
  H        -3.5216627793       13.7157967001       14.6790185954
  C        -1.5583387416       13.7877728514       19.8507829680
  H        -3.0027310492       12.9048760213       18.6805254292
  H        -3.5720545379       14.4097587595       19.4461545741
  C        -1.9604889777       13.6189749712       21.3119384997
  H        -0.7655993357       13.0789121456       19.5893486642
  H        -1.0171786015       14.6745517352       19.9079094656
  C        -0.8091691069       12.9672573673       22.1340139083
  H        -2.8118246042       12.9402540339       21.3237949902
  H        -2.3710443729       14.5327210041       21.7515850333
  C         0.3637470589       13.8438757636       22.5368211553
  H        -1.2607393101       12.5444509216       22.9761587000
  H        -0.5499682390       12.0319771921       21.6133912946
  C         1.4803012662       13.1856388288       23.3769868388
  H         0.8465313733       14.4005691444       21.6937552143
  H        -0.0619533447       14.5864323394       23.1313022416
  C         1.7765914176       11.7884356178       22.7210544053
  C         0.8823680173       12.4530310465       24.6003166217
  C         2.7416276091       14.0953376109       23.6700197678
  C         1.4625358785       10.7058869346       23.5223191217
  C         2.3412258735       11.4405573000       21.4725603091
  C         0.8699469741       11.1001120071       24.7170667187
  C         0.3914191973       13.0202644751       25.7864995706
  H         2.8482147099       14.7597044654       22.8298518404
  H         2.5680451825       14.6021356726       24.6124613081
  C         4.1312451394       13.3892628867       23.7602407409
  S         1.7245065497        9.1894510509       22.6975188513
  C         2.3101340465       10.0974623707       21.3525500435
  H         2.5284617807       12.3151786188       20.8157815354
  C         0.4180088132       10.4927914448       25.8343176346
  H         0.3451114802       14.0766132801       25.7331222747
  C        -0.0282996681       12.4130435852       26.9019356574
  H         4.2087220639       12.8717046405       22.8511891798
  H         4.0335587888       12.6690280154       24.5694214856
  C         5.4147754815       14.2840457572       24.0777252073
  C         2.5738898266        9.5557385780       19.9897731344
  C         0.0620643062       11.0730624126       27.0478540492
  H         0.4695560465        9.3759913328       25.8663976948
  C        -0.3855789781       12.7823700411       28.1519179874
  H         6.1620484923       13.6782492325       24.6234063350
  H         5.1476574379       15.0817354483       24.6707004333
  C         5.9852173418       14.8131749901       22.6492208152
  C         2.3791173856        8.1819366515       19.6600778693
  C         3.0750017344       10.4100734524       18.8680183533
  C        -0.3706644546       10.3288536367       28.2806670270
  C        -0.6249344307       11.7090413172       29.0259204662
  S        -0.5325406652       14.3686801389       28.8890119989
  H         6.4633488043       15.7785767940       22.6921633939
  H         5.0331770814       14.9425024691       22.0677880264
  C         6.7212341488       13.7321683068       21.8419779056
  N         2.0278641420        7.2194301130       20.6031826445
  C         2.6748738069        7.6530283946       18.4744506419
  C         3.3364365578        9.8709698469       17.5858705838
  H         3.3158653684       11.4017689647       19.0490079773
  C         0.8431755595        9.5911769867       28.8834489366
  C        -1.6912478768        9.5100142880       28.0614566273
  C        -1.1143019577       12.1651875150       30.2514448095
  C        -0.9812266529       13.5061710338       30.4344737146
  H         7.7408987879       13.6180577753       22.0390515779
  H         6.1541026068       12.7947260450       22.0353732231
  C         6.6649639477       13.9334507597       20.3354033121
  S         2.0188226423        5.7293300427       19.8761744820
  N         2.5543046224        6.2499967056       18.4142194079
  C         3.0571409714        8.4271514724       17.3425200427
  H         3.7194763805       10.4847409984       16.8728286274
  H         1.0219558635        8.6388352322       28.3035184671
  H         0.4691613947        9.3023705100       29.9230742000
  C         2.1291649483       10.4605419465       29.1090936651
  H        -1.3145783699        8.7449720491       27.3408418106
  H        -2.0204947692        9.0878621585       28.9594625338
  C        -2.8380853486       10.2364867046       27.3348342878
  H        -1.4018838862       11.4502854464       31.0450049754
  C        -1.2704938752       14.2361291232       31.6803326672
  H         6.1404258562       14.8830548088       20.2548964994
  H         6.0299887572       13.1381909701       19.9265491439
  C         7.9464680901       13.8743730602       19.5038301409
  C         3.2387584837        7.8483860461       16.0606452657
  H         2.3413715726       11.0309075148       28.2739393138
  H         1.9024737422       11.1059491476       29.9681339158
  C         3.2969925690        9.4953909548       29.5817237689
  H        -2.5746679078       10.2885720647       26.2883401133
  H        -2.8449714495       11.1642304778       27.8484220335
  C        -4.2503398829        9.5421292210       27.3052906202
  C        -1.3173696499       15.6414066858       31.8540498772
  C        -1.4833963560       13.4109216828       32.9182097477
  H         8.6537046678       14.7240950257       19.6689440164
  H         8.4483894698       12.9190509182       19.6405115609
  C         7.5619918943       13.9741216402       18.0333539792
  H         3.0023090718        6.8133082065       16.0436510751
  C         3.6284074088        8.3438883266       14.8207885739
  H         3.2312205304        8.6572102087       28.9412395488
  H         3.0348532834        9.2441288470       30.5963613257
  C         4.6340875264       10.1786990974       29.6932421899
  H        -4.2652727537        8.5671895540       26.8124848496
  H        -4.5139921032        9.1347271233       28.2522083965
  C        -5.2668958769       10.5660894045       26.7190824835
  N        -1.1578911704       16.6056932658       30.8851903001
  C        -1.6348254692       16.2046550544       33.0965883433
  C        -1.7286899375       13.9652683850       34.1400907685
  H        -1.3927049684       12.3256840427       32.8762267970
  H         8.4087430298       13.9257632580       17.3679120939
  H         6.9868231141       13.1154016809       17.7124867083
  H         7.0579796282       14.9474640841       17.8960346781
  S         3.9030940153        9.9625318301       14.3606497196
  C         3.7811828654        7.3384575302       13.7695869227
  H         4.7198916953       10.9617093222       28.9458922716
  H         4.6274282501       10.7572515511       30.6509357394
  C         5.7912011679        9.1500749262       29.5973037530
  H        -4.6897501452       11.1750650731       26.0153915463
  H        -5.5993461740       11.3630253215       27.4424806544
  C        -6.4295076456        9.7932472546       26.1048970295
  S        -1.3574137672       18.0292878993       31.5393371381
  N        -1.7982050803       17.5730167260       33.0574889492
  C        -1.8062140522       15.4379036222       34.2999893553
  H        -1.9299173858       13.3337960647       35.0007801342
  C         4.1959388099        9.3196657160       12.7916488670
  N         4.1735543862        7.9495784098       12.6202650792
  O         3.6047324068        6.1285107631       13.9616919328
  H         6.6899965271        9.7383072905       29.5198421962
  H         5.7632522728        8.5606659520       28.6596380861
  C         5.7589429876        8.2409536946       30.8514656084
  H        -6.0436132949        9.1270490201       25.2908292676
  H        -6.8864074981        9.0316278371       26.7959730572
  C        -7.5362743281       10.7699123953       25.5986949315
  C        -2.2670343093       16.1129906067       35.4251805602
  S         4.5586167749       10.2704541278       11.4225411445
  C         4.2671258320        7.2616823844       11.2856823674
  H         6.0629637522        8.8048753423       31.7475967396
  H         4.7155453025        7.9802736318       31.0374303821
  C         6.6344700947        6.9646084542       30.5875088505
  H        -7.1826042899       11.3447072841       24.7816154296
  H        -7.8250650864       11.5942757958       26.2446905823
  C        -8.7275152236       10.0027879260       24.9742599503
  H        -2.1752870832       17.2158163649       35.3779757515
  C        -2.7189814440       15.7654694470       36.6719602600
  H         5.1116954780        7.6631792181       10.6794737992
  H         4.5071465006        6.2144431308       11.3878162292
  C         2.9019444322        7.2304239108       10.6172427994
  H         7.6574508865        7.1396760912       30.4998683458
  H         6.3131201704        6.5458092294       29.6785767878
  C         6.3367595120        6.0426054722       31.7906748724
  H        -9.0518733915       10.5444608185       24.1232398529
  H        -8.2691685722        9.0272961429       24.8373963481
  C        -9.8652544545        9.9132984905       26.0219592381
  S        -3.2314352950       14.2243415520       37.2056494220
  C        -2.8905218887       16.8496910721       37.6288230086
  H         2.5064066458        8.2285266305       10.4024277838
  H         2.9036251172        6.7417737382        9.6527609312
  H         2.3277185452        6.5820888854       11.2664245362
  H         5.2434530966        6.0409144269       31.9606518638
  H         6.8174344257        6.3821581417       32.6829948852
  H         6.5793092293        4.9710554729       31.6519252893
  H        -9.5277837572        9.0970391823       26.7704681183
  H       -10.8371400622        9.6654842102       25.5190584568
  H       -10.0266833844       10.8466793193       26.5536629631
  C        -3.4191069180       15.0455478028       38.7852412616
  N        -3.3948302285       16.4107297085       38.7278212548
  O        -2.6393197286       18.0917648397       37.4254903499
  S        -3.8026575939       14.2401777600       40.2997661237
  C        -3.5575074293       17.3614514733       39.8331474767
  H        -3.9917390158       18.3135197382       39.5827984366
  H        -4.1942054482       17.0374202713       40.6001505076
  C        -2.2436247771       17.6460150331       40.5420032524
  H        -1.7125800921       18.4947973168       40.1238072227
  H        -2.4857803923       17.8057724673       41.6207290523
  H        -1.6096872955       16.7898312169       40.3040387880
  H         7.7578163909       12.0273372904        3.5488979178
  C         8.1071260056       11.0101434193        3.3938270368
  H         7.2103631889       10.4024974759        3.4776287261
  C         9.0277432408       10.7596451096        4.5995500500
  C         8.7826303290       10.7508983854        2.0078939613
  C         8.3063204894       11.0686426398        5.9481315153
  H         9.5361147132        9.8152087392        4.5640963741
  H         9.8251281835       11.4674413984        4.4272817223
  H         8.0709157086       10.9434010264        1.1681366117
  H         9.1005385524        9.7497973751        1.8717998164
  H         9.6835530943       11.3404718771        1.8142344124
  C         7.4260875997       10.0198956175        6.5854276247
  H         8.8899732699       11.4706027283        6.7182108009
  H         7.7828379202       11.9839864374        5.8409984644
  C         6.6912038810       10.3306514521        7.8477692482
  H         7.9245481767        9.0549281180        6.7261808444
  H         6.6183817572        9.9402680777        5.8367314362
  C         5.3551814343       11.0565749893        7.5913013561
  H         7.2712871648       10.9458226328        8.4897556806
  H         6.5496905489        9.3588713539        8.3735370582
  C         4.1948589132       10.1773671887        7.2316677942
  H         5.0613069822       11.7111856104        8.5160032454
  H         5.6219342114       11.8294567390        6.8199178728
  C         2.9147483337       10.9340975179        6.9209699072
  H         3.9234105478        9.4250787961        7.9534572392
  H         4.4038528349        9.6430117106        6.2765182307
  C         3.3130426388       12.2326228598        6.2259405075
  C         2.2977681002       11.5824152695        8.0884782125
  C         1.7619847518       10.2609076133        6.1117280356
  C         2.8921546432       13.2989352925        6.9925758400
  C         3.8170174188       12.6842400340        4.9978408297
  C         2.4078027707       12.9199218741        8.2454358723
  C         1.7884968470       10.9476208976        9.2485910470
  H         2.2540432318       10.0705861908        5.2207317008
  H         1.5115550491        9.2473505059        6.5245957833
  C         0.4933036999       11.0956953716        5.8723723543
  S         3.2877139739       14.8638157168        6.3146276940
  C         4.0281167006       14.0676786318        4.9486568143
  H         4.0960599242       11.9874140278        4.2482700857
  C         2.1013756911       13.5388380525        9.4307094853
  H         1.7142677192        9.9142816460        9.2083446208
  C         1.5974149466       11.4974947388       10.4682754865
  H         0.6630368808       12.1806829819        5.4945685585
  H        -0.0563870795       11.1541451023        6.8237666495
  C        -0.5780649850       10.4128844788        4.9373328282
  C         4.6021060148       14.8719049338        3.7996295346
  C         1.7331170317       12.8527256241       10.6095574432
  H         2.4244377098       14.5692809455        9.5274052741
  C         1.3554463347       11.0851591134       11.7255900108
  H        -1.4573327832       11.0495046549        4.9405112203
  H        -0.9621663256        9.4098172339        5.2420944255
  C        -0.1154115878       10.1313868454        3.4781346376
  C         4.5450056842       16.2918402127        3.6208220251
  C         5.1659404479       14.1306743776        2.6798410639
  C         1.5155800401       13.5206815148       11.9463926635
  C         1.2430856938       12.1338798975       12.5865784640
  S         0.8871782923        9.5740584173       12.4134657291
  H         0.3907059199        9.1771944120        3.3505362088
  H         0.5024214072       10.9696832286        3.0382074060
  C        -1.3755187518        9.9891700869        2.6157554507
  N         4.2069056926       17.2159446159        4.6193050726
  C         4.8227986599       16.8875688159        2.3749683306
  C         5.5067780910       14.7121012992        1.4520856640
  H         5.3412906139       13.0381150390        2.8178306598
  C         0.1516662312       14.3006157819       11.8177587167
  C         2.7173582424       14.3059199105       12.5688416756
  C         0.8162671331       11.7520608026       13.8433039125
  C         0.4575254628       10.3951805695       13.8647760665
  H        -2.0138046004        9.2884762710        3.0148723743
  H        -1.8714730545       10.9407072022        2.5138957133
  C        -1.0352816899        9.6861850940        1.1663925841
  S         4.0502422886       18.6748186737        3.9326502613
  N         4.5240089140       18.2759985291        2.4209829838
  C         5.2165704298       16.1610360032        1.2019511587
  H         5.7716101830       14.0064162680        0.6532659792
  H         0.1979319004       15.2248655958       11.2115689373
  H         0.0014216906       14.6782900330       12.7904275900
  C        -1.1034979025       13.5219280852       11.3814841114
  H         3.5374951865       14.1103446233       11.8554523156
  H         2.4952715667       15.3604692317       12.6198057443
  C         3.1962659797       13.8642838716       13.9357331796
  H         0.8636215302       12.5088588947       14.6839180820
  C         0.1610004234        9.6836691393       15.1375155738
  H        -2.0511320880        9.7833101780        0.8027183945
  H        -0.6730402240        8.6677215495        0.8703625193
  C        -0.0517520239       10.6211653571        0.5361191207
  C         5.3513506165       16.8761407617       -0.0686274083
  H        -0.9052841683       12.8504722281       10.5414848977
  H        -1.4574855822       12.8453495278       12.1306703827
  C        -2.1230986833       14.4541981609       10.9143717276
  H         3.2500842969       12.7603949557       13.9509532416
  H         2.3638546393       14.0718646890       14.6677512162
  C         4.4706283279       14.5610838010       14.3846176493
  C         0.1167654054        8.3147559934       15.3304041372
  C        -0.1657143781       10.5497685214       16.3571575230
  H        -0.0725501325       11.6213320664        1.0515561075
  H         1.0317494943       10.2806896419        0.5259839508
  C        -0.5223819055       10.7909072588       -0.8968424090
  H         5.2909939495       17.9474845828        0.0767925986
  C         5.7647275229       16.4517523661       -1.3029733974
  H        -1.7833975776       15.1769735484       10.1777819454
  H        -2.3644014722       15.1654282882       11.7663247136
  C        -3.3018102437       13.6022372788       10.3514181709
  H         4.2702675969       15.6184002285       14.3506156378
  H         4.6662694174       14.3371600018       15.4361551823
  C         5.7697336963       14.2897887443       13.6288818537
  N         0.4243250272        7.3901249985       14.3109547987
  C        -0.3054355242        7.7781176936       16.5099490751
  C        -0.4162865125        9.9780119688       17.5936025967
  H        -0.1680132692       11.6230272980       16.1927960811
  H        -1.6333701557       10.9406383516       -0.9256155932
  H        -0.3348239555        9.9218171768       -1.5581897921
  H        -0.0850767152       11.6683768949       -1.2582762800
  S         6.2096277166       14.8343433447       -1.7727446983
  C         5.5260917218       17.4320029979       -2.4194560739
  H        -2.9455137334       12.9533502594        9.5322415239
  H        -3.6332409906       12.9101424728       11.1001097493
  C        -4.4995244856       14.3376984079        9.8857797230
  H         5.7756428210       14.7389652125       12.6846548058
  H         5.8273522179       13.1919566909       13.5414158841
  C         7.0791954924       14.6922837309       14.3724890994
  S         0.3410549398        5.9110425149       14.9633665053
  N        -0.2192798721        6.3674044058       16.4409730949
  C        -0.5791274406        8.5321430649       17.6923391653
  H        -0.5511874933       10.5870173936       18.4590466548
  C         6.2173113564       15.5312286629       -3.3929052698
  N         5.9101804418       16.8131726054       -3.5224657510
  O         5.2709487699       18.6139712771       -2.3263015311
  H        -4.9369507359       14.7846908277       10.7555965192
  H        -4.2745033750       15.2393137425        9.2388501046
  C        -5.4710278845       13.5068918077        9.0829712414
  H         6.7029475788       15.0378368015       15.3711871648
  H         7.6451273753       13.8090277550       14.5068757719
  C         7.9528103049       15.6976201417       13.6056753563
  C        -0.8954333510        7.7818257507       18.8825458798
  S         6.5829491316       14.6846444453       -4.8447773582
  C         5.8194586807       17.4760811100       -4.8308853686
  H        -5.1094764436       13.2427274662        8.1010887932
  H        -5.6751915949       12.5226804455        9.5242904786
  C        -6.7311168675       14.1113159109        8.8616503715
  H         8.3966629916       15.3526067801       12.6308485166
  H         8.8394961289       15.9384187483       14.1951317631
  C         7.2857414244       17.0646000893       13.3888920160
  H        -0.7117443524        6.7451174559       18.7248566634
  C        -1.2344338222        8.1353758771       20.1805424888
  H         6.5906745196       17.1501263081       -5.4721351549
  H         6.1201027586       18.5954065041       -4.7400445616
  C         4.4308673198       17.4116435881       -5.4269280613
  H        -7.4070796949       13.3600994870        8.4394878307
  H        -6.7775395028       14.8948856152        8.0956512553
  C        -7.5149319745       14.4742585692       10.1280313354
  H         7.9887554540       17.5651358502       12.7429382835
  H         6.2783937455       16.9892243081       12.9242425591
  C         7.1319445271       17.8801504522       14.6404206987
  S        -1.7044412967        9.6699477146       20.6112638936
  C        -1.3722957571        7.0676537151       21.1508046032
  H         3.7291317240       17.9846320671       -4.7751414402
  H         3.9849336972       16.4335771051       -5.5992126115
  H         4.4996383956       17.9843046551       -6.3412857779
  H        -7.2147083779       13.7865552908       10.8881077132
  H        -7.1446834759       15.3747313174       10.4708957338
  H        -8.5609786865       14.5563330275       10.0321566172
  H         6.1458847337       17.5972466621       15.1476197904
  H         7.8721358511       17.5635660767       15.2897762908
  H         7.0357309704       18.9698846651       14.5120146251
  C        -2.0079389370        9.0317587454       22.1815113686
  N        -1.8313578108        7.6565756900       22.2864626246
  O        -0.9742172777        5.8870376169       21.0910623251
  S        -2.4654845699        9.8230086658       23.6445558361
  C        -2.0950179034        6.9520350358       23.5308098011
  H        -2.1321626464        5.9094929781       23.2760551388
  H        -2.9549667913        7.2956578703       24.0905617723
  C        -0.9110184317        7.1931313596       24.5734596877
  H        -0.9007952132        6.2473324165       25.2262179746
  H        -1.1322338934        8.0502779527       25.2155239495
  H         0.1145702813        7.1797342775       24.1805850575
