352
i =
  H        -2.7791134345       15.2852182744       16.5696606171
  C        -2.9065911802       14.2362883985       16.5201072681
  H        -3.8693157698       13.9399636593       16.9148981866
  C        -1.7072515106       13.7883286850       17.3522290066
  C        -2.9795402559       13.7794572175       15.0539672242
  C        -1.8555827546       14.2477611028       18.8462173478
  H        -1.4542921494       12.7462039891       17.2545701982
  H        -0.8724664947       14.3949897665       16.9200399859
  H        -2.4504899674       12.8766415015       14.8765696806
  H        -4.0464719925       13.5415044029       14.7670358293
  H        -2.6204410968       14.5205965684       14.2307094542
  C        -1.9269522735       13.0475893385       19.7943253713
  H        -2.7456965729       14.8112780299       19.0929857901
  H        -1.0094201676       14.9491009040       19.1011976142
  C        -2.2307127931       13.4183715818       21.2532123678
  H        -2.7226439664       12.4528588315       19.4283688578
  H        -1.1119538210       12.4276703168       19.6527432733
  C        -1.2433337105       12.9371182666       22.3574461640
  H        -3.2240689261       12.9589412992       21.4671716635
  H        -2.4277667782       14.5072720218       21.3052045381
  C         0.0360990328       13.7873088701       22.5425087630
  H        -1.7787487352       12.8450498603       23.2658896687
  H        -1.0624669576       11.8959924853       22.0590953457
  C         1.2256322625       13.0805955756       23.1829861342
  H         0.1354361927       14.2205355171       21.5869534787
  H        -0.2431394474       14.6770298837       23.0278895568
  C         1.6714442072       11.7093391008       22.5304900213
  C         0.7535378022       12.4419576990       24.4567036677
  C         2.4049329688       14.0605445511       23.5011057796
  C         1.4016251526       10.6245634051       23.3578728145
  C         2.2718862290       11.3236521236       21.3733728859
  C         0.8572995368       11.0493777635       24.5570724998
  C         0.3684073029       13.1147569845       25.6370211740
  H         2.5489593022       14.4799309295       22.5029422885
  H         2.0479275855       14.8785255500       24.0872512814
  C         3.7041411699       13.4562642783       23.9705496004
  S         1.8748780037        9.1028748235       22.6667415632
  C         2.2139175610       10.0022998024       21.2737479131
  H         2.5730870376       12.0088742342       20.6471117009
  C         0.5643558889       10.4749597627       25.8031696705
  H         0.2578858880       14.2071874508       25.4979622308
  C         0.1275809066       12.5378538548       26.8549818511
  H         4.1609782071       12.7654223532       23.2104285148
  H         3.3855883643       12.8773839702       24.8903007671
  C         4.7785549111       14.4235196493       24.2489401128
  C         2.5238562687        9.3002474923       19.9473962294
  C         0.1599056429       11.1899926601       26.9983875059
  H         0.6398181418        9.3915255624       25.9082907583
  C        -0.2809780795       12.9296947510       28.1442600626
  H         5.5989876609       14.0309532370       24.8511267190
  H         4.3615053592       15.2164799579       24.8114511004
  C         5.4006847854       14.9592904517       22.9619703422
  C         2.5276247053        7.9424279222       19.6804603151
  C         3.0127618236       10.1019753641       18.8500492712
  C        -0.3012142379       10.5672669390       28.2624217503
  C        -0.5081008009       11.8916966501       29.0118626656
  S        -0.5711698784       14.4273908063       28.9948881503
  H         6.0048571289       15.8462831043       23.2007511385
  H         4.6285844074       15.2899656506       22.2597531887
  C         6.4090250465       14.0582865899       22.1770527448
  N         2.2013242657        6.9708149374       20.5682564470
  C         2.7677745194        7.4598230047       18.4011546569
  C         3.3483641456        9.6004921339       17.5866822685
  H         3.1769417209       11.1804947869       19.0373085139
  C         0.6057091682        9.6608020227       29.0153773358
  C        -1.6874084951        9.8563447989       28.1683274147
  C        -0.8534956174       12.2186950934       30.2987960917
  C        -0.9174645454       13.5891376643       30.4761090168
  H         7.4231066704       14.5245108254       22.1705794108
  H         6.4642608807       13.0904513045       22.6006055387
  C         5.9768564577       13.8029791874       20.7472075719
  S         2.2593951583        5.5473426138       19.8617019640
  N         2.6167515881        6.0747032488       18.3764635585
  C         3.1984956818        8.1724471358       17.2642121695
  H         3.5876371610       10.3582429615       16.8590614877
  H         0.5647099577        8.6122849114       28.7759561292
  H         0.4276263110        9.7194967070       30.0543870541
  C         2.0311331711       10.1360804482       28.8942883631
  H        -1.4603897220        9.1361764711       27.3871578378
  H        -1.8552606703        9.2525511269       29.0530825164
  C        -2.8341386939       10.7538387064       27.7351639511
  H        -1.2856995784       11.5030527236       30.9030009597
  C        -1.2751920967       14.2878462816       31.8443737884
  H         5.4502120829       14.6633806879       20.2825381787
  H         5.1840616341       13.0035004552       20.6912862842
  C         7.1429257537       13.2417400919       19.9548054157
  C         3.4021675168        7.5177457738       15.9879898607
  H         2.4850781854        9.5765820913       28.0403452171
  H         2.0079177593       11.2455161212       28.6993332806
  C         2.8421975929        9.8896096566       30.2259268561
  H        -2.5853379672       11.2150275548       26.7277481025
  H        -2.9854049275       11.5529518674       28.5491703703
  C        -4.0708314609        9.8907372657       27.5665450646
  C        -1.4223316444       15.7040895005       32.0495802810
  C        -1.5356311333       13.4644358655       32.9910193795
  H         8.1212080559       13.6936438413       20.1738936061
  H         7.2466807133       12.2005538203       20.1902418024
  C         6.9338695965       13.4718011551       18.4359066935
  H         2.8403908455        6.5068948210       15.8979028428
  C         3.6995756179        8.0957832989       14.7837752759
  H         2.6381929205        8.8836108092       30.6256578281
  H         2.5365414604       10.6105134016       31.0035301073
  C         4.3468166207       10.0830044952       29.8979298330
  H        -3.9541337338        8.9656356989       26.9976810067
  H        -4.3296389299        9.5641124452       28.5425998442
  C        -5.3494603534       10.5938747122       27.1173998964
  N        -1.2537243321       16.6420120695       31.0565321351
  C        -1.9221079824       16.1977065574       33.2606169779
  C        -2.1057178039       13.9491358441       34.2185760092
  H        -1.4850276922       12.4429730543       32.8661978599
  H         6.0675602540       12.9204407885       18.1254296398
  H         6.6263082418       14.5026212945       18.2229013599
  H         7.7870601329       13.1933654646       17.7677460849
  S         4.0217702017        9.7302549725       14.4027263550
  C         3.8259360926        7.1880778035       13.6205702548
  H         4.4932957013       10.8769624983       29.1149518421
  H         4.8322070792       10.4816525971       30.7801169808
  C         5.0498988142        8.7255574041       29.6123605159
  H        -5.0775216566       11.5098758876       26.6562229936
  H        -5.9760657696       10.8862045573       27.9980453620
  C        -6.1980076350        9.8763253878       26.0358451305
  S        -1.3883463311       18.1281894237       31.6750553557
  N        -1.9786095169       17.6006974451       33.1090084848
  C        -2.3274187379       15.4400128231       34.3814487023
  H        -2.2698692257       13.2379257902       35.0089801770
  C         4.2782764076        9.1419715098       12.6984032129
  N         4.2449775660        7.8400518170       12.5205150434
  O         3.4903867004        5.9921835361       13.7312245734
  H         5.8044287914        8.9915139095       28.9148211687
  H         4.4323864085        8.0802341477       29.0776205844
  C         5.5256723111        8.0182942277       30.9017268280
  H        -5.6882203069        9.3698513375       25.2953242584
  H        -6.7135908759        9.1093799549       26.6809402254
  C        -7.2811496730       10.7341658799       25.5100029902
  C        -2.6678759497       16.1290847534       35.6109707016
  S         4.6390828365       10.1109628516       11.2421621681
  C         4.2308866412        7.2318634449       11.2035550358
  H         6.3879381032        8.4661318779       31.2860555367
  H         4.6961125351        8.1893151664       31.6461255020
  C         5.7440107203        6.5022301156       30.7040042666
  H        -6.8729641153       11.1548706359       24.6578120889
  H        -7.4449477231       11.5554190916       26.1141212533
  C        -8.5345270800        9.9661293919       25.1800924010
  H        -2.4111672792       17.1828047957       35.5481176845
  C        -3.1351980284       15.6681868593       36.7469077401
  H         4.9836334310        7.5706503660       10.4674096387
  H         4.5298828922        6.2052562280       11.3121005878
  C         2.8476915983        7.2165707849       10.5233728761
  H         6.2166270425        6.2070163392       29.7226253989
  H         4.8098929839        5.8980913743       30.6712619145
  C         6.6895141851        5.9755038794       31.8155264466
  H        -8.9044528088       10.3370784623       24.2360736130
  H        -8.2454950331        8.9298798859       24.9459845262
  C        -9.5147005597        9.9724871295       26.3718148042
  S        -3.4431593007       13.9603637165       37.0960604679
  C        -3.2853523058       16.6044717589       37.8400095593
  H         2.7938401858        6.5247624560        9.6991304626
  H         2.0866007088        6.9777176666       11.2116176291
  H         2.5797899327        8.2175299417       10.1857427981
  H         6.5433634301        4.8799785083       31.9530877587
  H         6.4463072826        6.4863948372       32.7359031287
  H         7.6569503823        6.2328453409       31.4788768657
  H        -9.5822519383       10.9495995591       26.8464137821
  H        -9.3886042604        9.1152725970       27.0900764745
  H       -10.5194628241        9.8617814389       25.8887146293
  C        -4.0081566729       14.6056803509       38.6920366908
  N        -3.8712065519       15.9453195822       38.8376297090
  O        -3.1498846158       17.8122153890       37.6667171935
  S        -4.3109499160       13.6213442158       40.1390710110
  C        -4.2527754353       16.6211081319       40.0790857904
  H        -4.5584982744       17.6695195316       39.8410527798
  H        -5.2077688642       16.2162515461       40.5168045028
  C        -3.1319357984       16.7407356377       41.1418569740
  H        -3.5157470406       16.8573555559       42.1761882691
  H        -2.3844271751       15.9379758750       41.1586697009
  H        -2.5922841217       17.7023516057       41.0300799992
  H         7.5057412835       11.3859319388        3.2869283895
  C         8.0841881342       10.4282549114        3.4321427268
  H         7.3948882982        9.5156667747        3.5120354393
  C         8.8765618354       10.5184766948        4.7928422892
  C         9.1466556575       10.3265116340        2.3483372794
  C         8.0799185770       10.5413834322        6.0493591209
  H         9.5431238894        9.5968325823        4.8916965850
  H         9.5788769206       11.3723675335        4.6880925853
  H         8.6434990677       10.3004234304        1.3873111240
  H         9.8698463225        9.5127583371        2.4770464083
  H         9.7313242703       11.2178299890        2.3474814391
  C         7.1258968597        9.2984931080        6.2233438115
  H         8.7299439490       10.7342362525        6.9462792159
  H         7.4220909493       11.3935532252        6.0294562690
  C         6.2762013273        9.4755464570        7.4795667489
  H         7.6810077992        8.4104852752        6.4187411313
  H         6.4629994792        9.0779789514        5.3536456572
  C         5.2033041298       10.5556568966        7.5027478436
  H         6.9209237442        9.8263628996        8.2302117659
  H         5.9544247439        8.5490044961        7.9283735296
  C         3.9175917814        9.9583273087        6.9273602153
  H         4.9284282073       10.6991100951        8.5675004043
  H         5.5177839324       11.4665887644        7.0531040299
  C         2.7246052734       10.8508448890        6.7524763006
  H         3.4782170990        9.0812508389        7.4816950433
  H         4.2110279823        9.5374174617        5.9533473905
  C         3.2088779416       12.1287335062        6.1045623555
  C         2.3040060701       11.5383100061        8.0279291594
  C         1.6252585153       10.1839368752        5.9177096594
  C         2.9948014433       13.2374645224        6.9251702351
  C         3.6945347445       12.4562558048        4.8034529364
  C         2.4836958022       12.8627717744        8.1686207336
  C         1.7917628568       10.9153176333        9.1776454044
  H         2.0161565188        9.7111654371        5.0032642344
  H         1.2834667467        9.2953787678        6.5527972116
  C         0.4568623720       11.1521283110        5.5640405291
  S         3.4958763997       14.6882248527        6.1012094500
  C         3.8023068824       13.7866772488        4.6459516191
  H         3.8983232323       11.6278272486        4.0418152321
  C         2.0765523114       13.5341253586        9.2842889494
  H         1.6572803044        9.8557013882        9.0197366789
  C         1.5480389210       11.5490987558       10.3386315744
  H         0.7852288178       12.0477791392        5.0645765855
  H         0.0404363172       11.4728967772        6.5303601734
  C        -0.6945352226       10.4630062267        4.7139631266
  C         4.2006602694       14.4202874087        3.3563576426
  C         1.6055488399       12.8852936010       10.4486585533
  H         2.1680103218       14.6247250305        9.3209418327
  C         1.2209384928       11.2493989475       11.6489587917
  H        -1.6499351383       11.0463227773        4.7470953626
  H        -0.9958748268        9.5570538161        5.2317990889
  C        -0.2124072659       10.0393517078        3.3286212992
  C         4.2781523321       15.8204518086        3.1902153169
  C         4.5499133497       13.6845775637        2.1829910008
  C         1.2270038776       13.6164650702       11.6850722663
  C         0.9096484101       12.3334447700       12.3972179590
  S         1.0647343514        9.6772714040       12.3848222586
  H         0.7209300085        9.5204320133        3.2327860946
  H         0.0595056662       10.9700571310        2.8203425596
  C        -1.2667291767        9.2932417852        2.4420211030
  N         4.1335349567       16.7904011346        4.2030955075
  C         4.5951512342       16.3325101372        1.9678834525
  C         4.9112003322       14.2132779152        0.9365455855
  H         4.7752525196       12.6371075517        2.3923928165
  C        -0.0401430147       14.4737425377       11.3946513803
  C         2.2641266405       14.3701446336       12.3812171810
  C         0.5497251660       11.9271074509       13.6608465011
  C         0.5959786579       10.4934619478       13.7822609170
  H        -1.4262041331        8.3714128219        3.0144049045
  H        -2.1492049004        9.9780500594        2.3081399511
  C        -0.8607816442        8.9640016905        0.9803930388
  S         4.1292148071       18.1945844652        3.4845609456
  N         4.5481627564       17.7294981962        1.9568129962
  C         4.8809660698       15.6461796971        0.7876082146
  H         5.1242554457       13.4660799950        0.2096187164
  H         0.1957210010       15.2981696790       10.6725155291
  H        -0.2996452758       15.0483286112       12.3456389921
  C        -1.2718004442       13.5951676968       10.9507644070
  H         2.7098709708       15.1153429158       11.6670373640
  H         1.7899669970       15.0612213929       13.1307945742
  C         3.3881554924       13.5934418995       12.9695123725
  H         0.3260541748       12.6575248816       14.4196397943
  C         0.2438755896        9.7159786854       15.0191329533
  H        -1.3318365084        8.0758836276        0.5868520782
  H         0.2134866001        8.7734557541        0.8510719238
  C        -1.1103650083       10.1290332463        0.0288309706
  C         5.0869739369       16.4151906631       -0.4069335965
  H        -0.9815156816       13.2068407179        9.9706368302
  H        -1.5329333520       12.8353019156       11.6650463040
  C        -2.5956771661       14.3810900737       10.8795241333
  H         3.6484776880       12.7832534395       12.3946690034
  H         3.0046022408       13.2611908148       13.9197439355
  C         4.6175858390       14.4513867179       13.3534281028
  C         0.0868672340        8.3228578751       15.1991968737
  C         0.2158787288       10.4641277523       16.3084473515
  H        -2.1775708928       10.4062974245        0.1090568287
  H        -0.5333682057       10.9002241868        0.3924075707
  C        -0.7688643806        9.7899351499       -1.4305454151
  H         4.7847713914       17.4215468247       -0.3699473032
  C         5.5080815843       15.9938731513       -1.6842675483
  H        -2.8752094554       14.9108659604        9.9253651835
  H        -2.4438571079       15.1711980072       11.6332098709
  C        -3.8066688518       13.5672297104       11.0910722236
  H         5.1626804819       14.8113815229       12.5183702244
  H         4.2810065925       15.3140374998       13.9662151527
  C         5.5956103903       13.5650821576       14.2812614877
  N         0.1939042774        7.4297726517       14.1565220677
  C        -0.1280527331        7.6701170841       16.4331667915
  C        -0.1133273284        9.8091479339       17.4881318400
  H         0.3156901425       11.5446297880       16.3052969220
  H        -1.0887239264       10.6053813361       -2.0742589427
  H        -1.4434919664        8.9157964517       -1.7279636821
  H         0.2613732403        9.5807307945       -1.6793980874
  S         5.9511979804       14.3456275951       -2.1217966947
  C         5.5982375795       17.0010428971       -2.7537711589
  H        -3.6418634455       12.5191080258       10.8042968758
  H        -3.8492337791       13.4152433177       12.1654329763
  C        -5.0525748787       14.2269470398       10.4076396779
  H         5.8386378246       12.6352022267       13.7050462082
  H         5.0706277142       13.4516295434       15.1904675928
  C         6.9095276150       14.2804595729       14.3954387270
  S         0.0892255013        5.9342657095       14.7810131669
  N        -0.1763410617        6.2705250040       16.3226644647
  C        -0.2437666039        8.3325277260       17.5915810236
  H        -0.0298043982       10.3415368655       18.3429966866
  C         6.0312120475       14.9669226959       -3.7533134009
  N         6.0200149989       16.3521410367       -3.8701982694
  O         5.4966403350       18.2424138360       -2.5922506732
  H        -5.7372912253       14.2230345932       11.2174857574
  H        -4.9732496568       15.2658111097       10.0902362311
  C        -5.4951864429       13.4799082727        9.1725553906
  H         7.6855013068       13.6529245855       14.9224113652
  H         7.3310326181       14.3107148771       13.3879673587
  C         6.9673167152       15.6061775981       15.1788963548
  C        -0.6369429032        7.5938879889       18.7418852037
  S         6.6064867231       14.0651721238       -5.1877692895
  C         6.0858932667       16.9886830152       -5.1680798219
  H        -4.6441486853       13.4524617832        8.4467607763
  H        -5.4914645430       12.3655409880        9.3210751618
  C        -6.8418633315       13.9759228933        8.5496831787
  H         7.1791001549       15.3672476787       16.1797801812
  H         6.0102902546       16.1744289882       15.2786839137
  C         7.8503221292       16.5960232562       14.5944732876
  H        -0.5061382720        6.5520089608       18.6929983536
  C        -1.0673210577        7.9719156861       20.0112914564
  H         6.7600403301       16.4396491497       -5.8807031850
  H         6.5477547939       18.0112609462       -5.0730763656
  C         4.6077376718       17.0521693826       -5.6993563142
  H        -7.0782275484       13.1349794204        7.8064630394
  H        -6.7302775495       14.9883666609        8.1674661686
  C        -8.0259064255       14.0807809072        9.4888679226
  H         8.0635647438       17.4780356006       15.2198250141
  H         8.7884583208       16.0360891661       14.4792426035
  C         7.3899430583       16.8740652862       13.2068836383
  S        -1.5996241934        9.5450925451       20.5092180507
  C        -1.2288000733        6.8799709709       21.0195981648
  H         4.4093070772       16.4772328602       -6.4816087245
  H         4.2582086498       18.0697126626       -5.8302548043
  H         3.8905360128       16.7811402559       -4.8711800212
  H        -7.8931295183       14.9041646886       10.2678978452
  H        -8.9519089679       14.3145198966        8.9242737759
  H        -8.1643146050       13.1481851779       10.0955627657
  H         7.8263266310       17.7700400009       12.8157552661
  H         7.7718308303       16.1319143437       12.5726229988
  H         6.2797176596       17.0348707541       13.1944361117
  C        -2.0231448848        8.7316425190       22.0495789533
  N        -1.7351878649        7.4218765739       22.1584516568
  O        -1.0496152171        5.6851764244       20.7864328385
  S        -2.5830821682        9.4941162940       23.5553293679
  C        -1.7280369431        6.6313244762       23.4384969029
  H        -1.8842911518        5.5894276352       23.1967056583
  H        -2.5986663859        6.8799851683       23.9737898786
  C        -0.4406804372        6.7755923564       24.1670977879
  H        -0.2366399681        7.9010396134       24.2472193551
  H         0.3815565763        6.2432519916       23.6653913865
  H        -0.6041822467        6.5086085488       25.1811299874
