352
i =
  H        -2.6227096805       15.2045192353       16.9013301449
  C        -2.9034598919       14.1664816883       16.7892922957
  H        -3.9806410772       14.0213970676       16.9914626718
  C        -2.0446410650       13.3448125794       17.7137543694
  C        -2.7363642356       13.7866757053       15.2731488577
  C        -2.1714883786       13.7727285213       19.1321222757
  H        -2.2725341110       12.3498384254       17.5911671300
  H        -1.0107396888       13.5320419735       17.3960992801
  H        -1.6925992700       13.7042213667       14.9794825231
  H        -3.1008605744       12.7710139298       15.0376397251
  H        -3.3432597995       14.4948940614       14.6191882363
  C        -2.4387596467       12.5610231305       20.0628154379
  H        -2.9614094194       14.5574213077       19.2855097511
  H        -1.2135732468       14.2557547377       19.4483165611
  C        -2.6214030693       13.0552777474       21.5503607035
  H        -3.2250194807       11.9638582967       19.6515727618
  H        -1.5012188369       11.9347141435       20.0349878561
  C        -1.5964737645       12.6272383674       22.5390683577
  H        -3.6540144740       12.9118329613       21.8285962875
  H        -2.4859946619       14.1094818024       21.4750043472
  C        -0.3828719297       13.5164077095       22.5403592703
  H        -1.9747422557       12.5526942359       23.5554110906
  H        -1.2687273373       11.6575489550       22.1963399255
  C         0.7684239347       12.9121087457       23.3603801325
  H        -0.0292460403       13.6631857979       21.5151101487
  H        -0.5830592964       14.4975959997       22.9443357233
  C         1.0519893175       11.5745794361       22.7086925999
  C         0.3442617390       12.1991703132       24.6067352061
  C         2.0489637384       13.8793737450       23.5725353584
  C         1.0400853657       10.4659381920       23.5397373225
  C         1.5840109610       11.2790748498       21.3844002532
  C         0.4733831543       10.8280168540       24.7483238902
  C        -0.1493126949       12.8817636204       25.7132109632
  H         2.2581306860       14.3659504442       22.5524462139
  H         1.8163926858       14.7324461400       24.2188272352
  C         3.3039571868       13.0817366589       24.0777740638
  S         1.5963618647        9.0557144593       22.8083887917
  C         1.8283051554        9.9185029816       21.2573794120
  H         1.6975987310       12.0939179757       20.6753912866
  C         0.1471165786       10.2176583728       25.8696252466
  H        -0.2065473116       13.9235990535       25.6245713363
  C        -0.4499578127       12.2690547420       26.8389989454
  H         3.5772974042       12.3978156573       23.2986428728
  H         3.0930446884       12.5429340233       25.0121299843
  C         4.4651152653       14.0600822123       24.3442385511
  C         2.1646354850        9.2765690030       19.9516790610
  C        -0.4602173371       10.9351389317       26.9444849941
  H         0.2636771364        9.1451419394       26.0032387885
  C        -0.8082176172       12.7136299072       28.0516709111
  H         5.2740700467       13.4013602962       24.6772704025
  H         4.2703503290       14.8497273073       25.0905179962
  C         4.9258329387       14.8177330920       23.0986736981
  C         2.2524682267        7.8666204207       19.7204188005
  C         2.5174863710       10.0689128683       18.7700799787
  C        -0.7967822513       10.2867030299       28.1521065007
  C        -1.0155463339       11.6076755246       28.8789573354
  S        -0.9707378705       14.2147242956       28.8082799943
  H         5.5350933064       15.6354065589       23.3947002463
  H         4.1028343035       15.2347824688       22.5660277770
  C         5.7228575009       13.9982891613       22.1190826584
  N         2.2479933217        6.9370306632       20.7456138661
  C         2.4116250704        7.2678749306       18.4856905607
  C         2.8687390777        9.5478003214       17.5832376292
  H         2.7745257397       11.1376054352       18.9177659075
  C         0.2597954749        9.4143527687       28.8926877414
  C        -2.1933660970        9.5052129593       28.0596600953
  C        -1.4677786009       11.9806977848       30.1365664346
  C        -1.3455094360       13.3358103311       30.3062445792
  H         6.6045415961       14.6269272312       21.7991342720
  H         6.0949151755       13.1793677859       22.5550491149
  C         5.0010024243       13.5574966883       20.7998325391
  S         2.0750909834        5.4692298619       20.0547599238
  N         2.2956003511        5.8713661272       18.4792692665
  C         2.7602696063        8.0782465406       17.3366892987
  H         3.2849170219       10.1493275372       16.8659432807
  H         0.5077144317        8.5467587536       28.3204930387
  H        -0.1523828463        9.0686912082       29.7857356903
  C         1.5561541717       10.2596588024       29.1479447553
  H        -2.1426152162        8.8128208193       27.1922264700
  H        -2.4434798877        8.9940244355       29.0003455502
  C        -3.3525606783       10.4739204208       27.8401860258
  H        -1.7942534917       11.2899348650       30.8713885571
  C        -1.6055580591       14.1069628686       31.5618658684
  H         4.6242577026       14.3960632610       20.2567687457
  H         4.1656382356       12.9718430402       20.9700869753
  C         5.9353552255       12.7560454597       19.9200130804
  C         3.0350166869        7.5150231815       16.1020120100
  H         1.8866143044       10.5920044614       28.1887791143
  H         1.5173963612       11.1905945341       29.6828426809
  C         2.7832096165        9.4743314153       29.6157162201
  H        -3.1786108962       11.1633641040       27.0259966714
  H        -3.3905562345       11.1259743153       28.7110584731
  C        -4.6158594064        9.6761660064       27.4334587844
  C        -1.6837406299       15.5135303574       31.7139336190
  C        -1.8927527650       13.2433951332       32.7751138410
  H         6.5210414272       12.1571511987       20.5810954679
  H         5.5173116990       11.9121112145       19.3756256696
  C         6.7725777647       13.6105859681       18.9351623485
  H         2.7827254487        6.5002649485       16.1107250052
  C         3.4387840911        7.9508972904       14.8479852441
  H         3.0182443607        8.7158332606       28.8850397451
  H         2.5208514367        8.8757429120       30.5827126036
  C         4.0314156044       10.3241868532       29.7596225989
  H        -4.3506209078        8.7787029888       26.7448834340
  H        -5.0402588946        9.2017467803       28.3309872938
  C        -5.6523573918       10.5607509007       26.6190998151
  N        -1.4462674246       16.4615418793       30.6918319903
  C        -1.8242350105       16.1267742922       32.9941863543
  C        -2.0258212423       13.8869606953       34.0552066923
  H        -1.9312094966       12.1446953274       32.7161538590
  H         6.0526575657       14.1655196726       18.2704181547
  H         7.3868018196       14.3614144762       19.4007282309
  H         7.3682258278       12.8821626023       18.3381013659
  S         3.8703010823        9.5022051475       14.4670728463
  C         3.5478368268        6.9332218035       13.7479728479
  H         4.1424930270       10.9730544188       28.8266594136
  H         3.9100527736       11.0114282365       30.5810357173
  C         5.3592915261        9.5973952259       29.9604770442
  H        -5.0372314375       11.2247064564       25.9520429864
  H        -6.0736591188       11.3850486176       27.2643616868
  C        -6.8139680171        9.8332522518       25.9135337249
  S        -1.6148270861       17.8936582923       31.3863592472
  N        -2.0314492451       17.4912729859       32.8987297832
  C        -1.9401973754       15.3760003040       34.1609346676
  H        -2.3595644341       13.3096158388       34.9014841221
  C         3.9414926981        8.8779682709       12.7710356791
  N         3.9555573931        7.5263655818       12.6315732037
  O         3.3515299340        5.7338629272       13.8977832615
  H         6.0973454830       10.1268904837       30.4950038665
  H         5.8252046383        9.2814604017       28.9958048173
  C         5.0726347221        8.3211894737       30.7473556446
  H        -6.3867815915        9.4124760017       24.9937978218
  H        -7.1680408112        8.9985337747       26.5192115097
  C        -7.9604740941       10.7635484467       25.4468227952
  C        -2.3477712747       16.1259370266       35.3122394089
  S         4.4071811962        9.9038834082       11.3763959461
  C         4.0396521776        6.8720152050       11.2472090860
  H         4.5483433333        8.5930811496       31.6660304501
  H         4.4977509638        7.6344429854       30.2427321652
  C         6.3655556594        7.6248813109       31.1366031968
  H        -7.7760046413       11.2283261676       24.4945656178
  H        -8.1447459078       11.5808370815       26.1901766691
  C        -9.1938443946        9.9500251839       25.2533114099
  H        -2.0432721596       17.1507315909       35.2440089246
  C        -2.8913359356       15.8042329110       36.5113994687
  H         4.6346895373        7.4375785337       10.4685833200
  H         4.6341422221        5.9554741026       11.3388752390
  C         2.5889661022        6.7137448218       10.6496039058
  H         6.2221827183        7.2658505434       32.1492961027
  H         7.1742464280        8.4159151704       31.1824030110
  C         6.7269031292        6.4514737714       30.1376269772
  H        -9.7391815102       10.2935522465       24.4052053971
  H        -8.8324646734        8.9607757790       24.9347170469
  C       -10.0120422512        9.9473093132       26.4643642791
  S        -3.4676842934       14.3191863307       37.0510752146
  C        -3.0685229623       16.9063948527       37.4787291487
  H         2.3827310763        5.6724585348       10.8052287700
  H         1.8341749466        7.2916611619       11.1439897359
  H         2.5072912729        6.8337026094        9.5861158610
  H         7.7676665543        6.0092843763       30.3505304808
  H         6.6523801717        6.7869681848       29.0962599152
  H         5.9581369395        5.7097529660       30.1602615884
  H        -9.9462211673       10.9389453341       26.9048157927
  H        -9.5610367433        9.1631986969       27.0889651419
  H       -11.0589296942        9.7504687383       26.3183228205
  C        -3.8881038336       15.0761115946       38.5992598030
  N        -3.6200250760       16.4243704347       38.6249710335
  O        -2.5923922865       18.0216514171       37.3483442894
  S        -4.8124525396       14.4585730858       39.9602776559
  C        -3.7448213743       17.2979940807       39.8422931142
  H        -4.0470731507       18.3654526343       39.6119997126
  H        -4.5075104822       16.9706293445       40.5726837805
  C        -2.3840073132       17.1950312248       40.5835085722
  H        -1.4913351616       17.6179206077       40.1059059435
  H        -2.3428219439       17.8092294721       41.5072505574
  H        -2.2392069351       16.1961252067       40.8950451934
  H         6.7472386477       11.4311531678        3.7214144676
  C         7.4345507744       10.5296648547        3.7379734076
  H         6.9601768809        9.5716862041        4.0162349286
  C         8.4193508107       10.7677921582        4.9049037930
  C         8.1681850414       10.3494366057        2.3975641971
  C         7.6733954192       10.8409041544        6.3033499704
  H         9.1960481680        9.9706372027        5.0092405907
  H         8.8771291705       11.7267214560        4.5633571245
  H         8.4091233777       11.3259288928        1.9115378337
  H         7.5685036388        9.7649289526        1.7066554017
  H         9.0623061645        9.8128416893        2.5829497557
  C         7.2160539333        9.5113256797        6.9066571100
  H         8.2374758435       11.4391638955        6.9972152882
  H         6.8020632763       11.4213897939        6.1048118911
  C         6.3692277664        9.5691970900        8.1524545771
  H         8.2221543587        9.0864647083        7.0568565920
  H         6.6946055471        9.0230758054        6.1102757840
  C         5.1041658887       10.4375426112        8.0081746282
  H         7.1013295187        9.9117091815        8.9109684871
  H         6.1305975407        8.5881567695        8.4739612425
  C         3.8356233777        9.6526542853        7.6221693196
  H         4.9554224706       10.8246538787        9.0005233088
  H         5.2743828322       11.3581450594        7.4145183903
  C         2.6480317764       10.6195033250        7.1096566662
  H         3.4400563832        9.0506964111        8.4538324343
  H         4.1235677143        8.9078091534        6.8645049052
  C         3.0437739380       11.9124425761        6.4022417902
  C         2.1290851275       11.3357903871        8.2917860823
  C         1.6120321239        9.9448640387        6.2807684429
  C         2.7274857707       13.0335484932        7.1654045171
  C         3.6519888689       12.2003842146        5.1876612893
  C         2.1635640320       12.7170712757        8.3432784254
  C         1.6323369396       10.6504340358        9.4120881441
  H         1.9819127984        9.6946973353        5.2739634571
  H         1.2444440699        8.9997120640        6.7722219278
  C         0.3948571290       10.9363008756        5.9385366027
  S         3.1015304667       14.4673264748        6.2279454820
  C         3.6552413383       13.5525825116        4.8937319181
  H         3.9278026226       11.4470638329        4.4346647987
  C         1.6815136256       13.3055219164        9.5147274015
  H         1.4797801531        9.5875751729        9.4485877020
  C         1.3674767191       11.2344537021       10.6016514203
  H         0.8447025969       11.8598576079        5.4766480892
  H        -0.3142328855       11.1555784539        6.7224924737
  C        -0.4515864755       10.2899134733        4.8278236575
  C         4.1285908556       14.2525698913        3.6684411002
  C         1.3745475562       12.5905486105       10.6734432189
  H         1.7052631817       14.3705426308        9.5857170167
  C         0.8543132905       10.9096652249       11.8689786706
  H        -1.3109126015       10.8913941163        4.7807144970
  H        -0.8218110722        9.2990585680        4.9616581085
  C         0.1231182722       10.4108043589        3.4683211941
  C         4.0612384833       15.6859597576        3.4349203980
  C         4.4272494640       13.3949754257        2.5238838686
  C         0.9998204632       13.3383807491       11.9511615765
  C         0.7148227822       11.9922157807       12.6982900976
  S         0.4999462165        9.4161970695       12.6227353726
  H         1.1258431314       10.9116405694        3.4972551576
  H        -0.5753247912       11.1910816542        3.1069630185
  C         0.1055222118        9.1120332660        2.6703212105
  N         3.6683613077       16.6743827371        4.3159620114
  C         4.3664469937       16.1227683101        2.1802916074
  C         4.8204936484       13.8788403957        1.3136219694
  H         4.3806526741       12.3368656805        2.6379975625
  C        -0.2868775494       14.1075693618       11.7270389283
  C         2.0592934490       14.1945420932       12.6540534257
  C         0.3117319991       11.5821786241       14.0107692549
  C         0.2304564253       10.2333909319       14.1049627669
  H         0.9291342570        8.6126728655        3.0462293321
  H        -0.7984689708        8.4874844821        2.7651757022
  C         0.3461472919        9.4552169754        1.2406802235
  S         3.8074844744       18.1077182752        3.5822507398
  N         4.3781516839       17.5366049947        2.1487154353
  C         4.6796456732       15.3386019049        1.0450992707
  H         5.0975552131       13.1588390497        0.5638591213
  H        -0.0472938220       14.9662710494       11.1343416059
  H        -0.7688279548       14.4068630851       12.6864181022
  C        -1.3587123735       13.2547529870       11.0302998304
  H         2.2718942067       14.9896364732       11.9507322954
  H         1.5215524470       14.5949649899       13.5711858903
  C         3.3015025948       13.4578440019       13.0287626934
  H         0.1506202810       12.2875569126       14.7704465646
  C        -0.1407946825        9.4081420508       15.3296555056
  H         0.8520215851        8.7134109283        0.6653472401
  H         0.8962771324       10.4287325150        1.0603095639
  C        -0.9751096504        9.7024870069        0.4977890728
  C         4.9197925843       15.9755555648       -0.2079158544
  H        -1.1935707918       13.1507993507        9.9672611511
  H        -1.4780024842       12.2267693212       11.3623701922
  C        -2.7546213407       14.0022007665       11.1292141051
  H         3.7220618643       12.9541033427       12.1010453763
  H         3.2365940296       12.8133345802       13.8317191587
  C         4.4244692614       14.3888499639       13.5708396698
  C        -0.1470049376        8.0124552048       15.4442535035
  C        -0.4217717186       10.1770438712       16.6193644843
  H        -1.7275114430        8.8674207962        0.7626315869
  H        -1.2706344679       10.7013076343        0.7368782917
  C        -0.8233925004        9.7027972341       -1.0221921713
  H         4.8518201229       17.0453496254       -0.0832007331
  C         5.1648218948       15.5011698280       -1.4971237731
  H        -2.6793341799       14.9761998875       10.6434907553
  H        -3.0084740683       14.2367863446       12.1657140508
  C        -3.7193000935       13.0479953321       10.5353894314
  H         4.8003657101       14.9523681260       12.7051083767
  H         3.9706264669       15.0211469409       14.2717190786
  C         5.4921235281       13.5892619088       14.2913815359
  N         0.2545245365        7.0879155602       14.4618706963
  C        -0.4778518197        7.4012497669       16.6548897453
  C        -0.6216017131        9.5224870451       17.8272002998
  H        -0.5405320711       11.2361167887       16.5461382522
  H        -0.5989090357       10.7826656412       -1.3254677958
  H        -1.8203632236        9.3755499323       -1.3997928837
  H        -0.0704117199        9.0177747794       -1.4319308612
  S         5.3337516494       13.8817067701       -1.9770999821
  C         5.3130198511       16.5148972536       -2.5477034965
  H        -3.3456975490       12.4874527845        9.7217937833
  H        -4.0811112488       12.3133010368       11.2435399824
  C        -4.9507432850       13.8008304776        9.9285244580
  H         6.0559516347       12.9644851404       13.6214669629
  H         4.9677172411       12.8839373631       14.8957249159
  C         6.4209157659       14.4175828532       15.1676083155
  S         0.0934150462        5.6215927842       15.0459940143
  N        -0.4424747569        6.0371109457       16.5014616540
  C        -0.7056041344        8.0577457042       17.8893236021
  H        -0.7210167566       10.0752835403       18.7503280159
  C         5.7224418097       14.5330569175       -3.5092401967
  N         5.7330582442       15.9102360141       -3.6652624680
  O         5.1717056406       17.7518398308       -2.3805894056
  H        -5.3420453784       14.3031917734       10.8015797086
  H        -4.4630732420       14.5084409028        9.2267554266
  C        -5.8559457868       12.8460807515        9.1318349485
  H         5.9316165973       14.5978987506       16.1256821447
  H         7.1166969673       13.6098222836       15.4072530666
  C         7.0589164718       15.6588297185       14.4247403658
  C        -1.0177069614        7.2910933431       19.0916888656
  S         6.2195316055       13.5769345710       -4.8811181448
  C         5.8359506985       16.5637750150       -4.9293296270
  H        -5.2244915131       12.4139069586        8.3312498722
  H        -6.2083649144       12.0697376926        9.7165973894
  C        -7.0777504868       13.6854513353        8.7341915127
  H         6.3062413115       16.2500354107       13.8880691686
  H         7.6051554333       15.3175758724       13.5753379223
  C         7.9394398405       16.4650381085       15.2917774546
  H        -1.2187599049        6.2137645562       19.0119338269
  C        -1.4699356495        7.6946624719       20.3078872379
  H         6.0326333675       15.8947596375       -5.7530845350
  H         6.5782851875       17.3642715046       -4.9418149419
  C         4.5331657820       17.1483117805       -5.3329095728
  H        -7.5641554755       13.3290947363        7.8737837455
  H        -6.6538722942       14.6313981078        8.3061684254
  C        -8.0413287845       13.9898860168        9.9561151815
  H         8.0323743022       15.9269287165       16.2615718425
  H         8.9816331661       16.6536448678       15.0613014144
  C         7.2556896470       17.7422591387       15.6553781490
  S        -2.1234843151        9.2458994049       20.8083401791
  C        -1.4259523409        6.6702516802       21.3864444890
  H         3.6791483884       16.7204091264       -4.8081713986
  H         4.2924307173       16.9445688725       -6.3963944059
  H         4.4239080542       18.2647093667       -5.3140623629
  H        -7.5454921657       13.8867096270       10.9354828717
  H        -8.3752698798       14.9463924627        9.8604111611
  H        -8.8513373879       13.2723712278        9.9976185308
  H         6.2450838000       17.5543861476       15.9162121208
  H         7.7036272465       18.0856204840       16.5772023427
  H         7.4193461380       18.5543442143       14.9357710364
  C        -2.4601940255        8.4674155559       22.3498066681
  N        -1.9652865765        7.1900456754       22.5032609928
  O        -0.8839823115        5.5381752751       21.2961331607
  S        -3.3398245396        9.1027670130       23.7453070304
  C        -2.0091668903        6.4115659550       23.6974172970
  H        -2.2598186236        5.4024940982       23.3746884053
  H        -2.7779241926        6.6666474388       24.4508551306
  C        -0.6467227260        6.2059176782       24.3259799030
  H        -0.4343967928        6.9947210437       25.1117204184
  H         0.2502090459        6.1730947613       23.6437383238
  H        -0.6672824623        5.1464889537       24.7142006020
