352
i =
  H        -4.2255688910       13.7368168574       16.4619484002
  C        -3.1688761632       13.5009225933       16.3249280640
  H        -2.8999402183       12.4895743538       16.3702464334
  C        -2.4664470801       14.1053987577       17.5645466388
  C        -2.7336113064       14.1745850332       15.0109299445
  C        -2.9614660680       13.5620350930       18.9351429635
  H        -1.4210929284       13.9084979194       17.5235995989
  H        -2.5869461305       15.1399933119       17.5197523153
  H        -1.9720848855       13.8033945240       14.3591360107
  H        -3.5240165503       14.2531768787       14.3283917180
  H        -2.5812392620       15.2232526586       15.0833223567
  C        -1.7690794022       13.3723739416       19.8843585237
  H        -3.5578338974       12.7019295300       18.8964961902
  H        -3.6492126019       14.3195276395       19.3348515629
  C        -2.2529051273       13.3952190283       21.3408277162
  H        -1.2149834034       12.5158118105       19.6173737894
  H        -1.0712681851       14.2540165996       19.7641695515
  C        -1.2071290280       12.6203299222       22.2304969633
  H        -3.2660757038       12.9521806768       21.4854040860
  H        -2.2796921927       14.3922787226       21.6441934831
  C         0.0168417963       13.4420043901       22.5729351605
  H        -1.7756430811       12.5615708527       23.0899042441
  H        -0.8901054937       11.6565873030       21.8299798981
  C         1.1563356919       12.6617131010       23.3498926114
  H         0.3795817862       13.8118596200       21.6587609754
  H        -0.2835651492       14.3415174446       23.2015264550
  C         1.4985390733       11.3009249210       22.7352083006
  C         0.7104728866       11.9037422277       24.5380887930
  C         2.4419188864       13.5363163914       23.3851899945
  C         1.0758715957       10.1687827758       23.4375021898
  C         2.0321287001       10.9765730719       21.4342154411
  C         0.5610741982       10.5566460849       24.6361764571
  C         0.2961875848       12.5733966815       25.6888562456
  H         2.7717427487       13.7746691014       22.4200515909
  H         2.2391603941       14.5078970994       23.8555486885
  C         3.6447371662       12.9227958350       24.1497949197
  S         1.3626229097        8.6536620284       22.5750824285
  C         1.9942822639        9.5993439978       21.2240192309
  H         2.3548829834       11.7073887904       20.7347088152
  C         0.0010364583       10.0187871073       25.7386261234
  H         0.3418931080       13.7069385075       25.4861694605
  C        -0.1837881000       12.0307812736       26.8075573336
  H         4.0553481185       12.0362536467       23.6275175818
  H         3.3477170652       12.5340931826       25.1328376374
  C         4.7754113926       13.9408897610       24.4347325147
  C         2.4351530751        8.9133916365       19.9435616576
  C        -0.3368200912       10.7068584892       26.9371305268
  H        -0.2910612252        8.9798690087       25.8141780213
  C        -0.5426191009       12.4483113641       28.0816637974
  H         5.3394144886       13.4619621650       25.1967902509
  H         4.2839226993       14.7821307360       24.9102983091
  C         5.6360658779       14.3370890669       23.2145578165
  C         2.3291393896        7.4714898017       19.6836519172
  C         2.8782269006        9.7594704264       18.8341353912
  C        -0.7219280515       10.0564082328       28.1858800695
  C        -0.8216621556       11.3852130716       28.8855332672
  S        -0.8015125229       13.9183103488       28.8033040047
  H         6.3770440740       14.9960645567       23.7382362612
  H         5.0073473741       14.9581791532       22.5946993629
  C         6.5147913024       13.2616245541       22.5414855357
  N         2.0120680298        6.5461578674       20.6543403565
  C         2.6775517584        6.9821375690       18.4437133583
  C         3.1124946005        9.1888320409       17.5793239705
  H         2.8033510266       10.8701006229       18.8288480372
  C         0.2950899697        9.1997234510       28.9043252013
  C        -2.1000349084        9.3340751317       27.9375694277
  C        -1.0074553560       11.7424069215       30.2244213258
  C        -1.0937787834       13.1261491101       30.3573065502
  H         7.4230104294       13.7639198691       22.4465623118
  H         6.7820569090       12.5531199117       23.3470831530
  C         5.9725455192       12.5450615994       21.2172973512
  S         1.8277082421        5.1509271685       19.9036450242
  N         2.3524825759        5.5735357250       18.4445999266
  C         3.0058180697        7.7481891920       17.3201133761
  H         3.2872260507        9.8038530871       16.6981560801
  H         0.3885729866        8.2366322112       28.4802476418
  H        -0.0361650922        9.1007257266       29.9183669932
  C         1.7541190548        9.6860840307       28.9720320740
  H        -1.9805432300        8.4439438043       27.3075444851
  H        -2.3794227337        8.9275350674       28.9496566002
  C        -3.2733925750       10.1697785134       27.4711537857
  H        -1.1754178562       10.9708889288       30.9558184872
  C        -1.4138476934       13.9278546230       31.6022313633
  H         5.1048060751       12.0392113293       21.4983027873
  H         6.6948188183       11.8259019842       20.8634891822
  C         5.6482489668       13.4884567975       20.0261378566
  C         3.1646985064        7.1889876929       16.0204773184
  H         2.1646118347       10.0586084699       28.0137336819
  H         1.6798466206       10.4582806840       29.7162962241
  C         2.6020227830        8.6562263384       29.6132061651
  H        -3.1297059529       10.6766752143       26.5541265239
  H        -3.4634783228       10.9704635377       28.1428042730
  C        -4.5224371570        9.3460404746       27.2600647116
  C        -1.4259078916       15.3772360451       31.7009404596
  C        -1.7423812216       13.1460919927       32.8217811107
  H         4.9493990588       13.0547133060       19.3190336576
  H         5.1032619344       14.2916686674       20.4595789334
  C         6.9778931624       13.8603290030       19.3373359157
  H         3.2241459527        6.1373697779       16.1251784109
  C         3.4796413359        7.6907802444       14.8004993037
  H         3.0649414201        8.1013790447       28.7995261355
  H         1.9855293786        8.0107614557       30.3191345762
  C         3.7564882191        9.3402991270       30.2729834622
  H        -4.3334550054        8.5801752947       26.4674855510
  H        -4.7139761923        8.8877534393       28.2247384877
  C        -5.6083301712       10.2867847558       26.6881534364
  N        -1.1878540387       16.2961681820       30.6677169860
  C        -1.9007096747       16.0260311015       32.7994851770
  C        -2.0999833035       13.8469845566       33.9773834362
  H        -1.7066579973       12.0921874698       32.7976235814
  H         6.8741061463       14.5318684544       18.4978029606
  H         7.7978531621       14.2130817243       19.9956183030
  H         7.4099208153       13.0059122757       18.8679347553
  S         3.6970915637        9.2901907828       14.2391418029
  C         3.4905636199        6.6582210214       13.7475338237
  H         3.8932563840       10.2853108611       29.7897599972
  H         3.4349786089        9.5697197300       31.3258931151
  C         4.9467842581        8.4356411987       30.4386315437
  H        -5.1466803596       11.1786380242       26.2698382232
  H        -6.2258861527       10.6725654691       27.5521628949
  C        -6.4735247005        9.6562623951       25.5790948534
  S        -1.4290953734       17.8090254589       31.1857450062
  N        -1.9783926937       17.4263480689       32.6988162803
  C        -2.1424039352       15.3672036019       34.0160764956
  H        -2.3266893794       13.2868949472       34.9235224592
  C         3.9408432386        8.6194993546       12.6550300299
  N         3.8271693848        7.2855191963       12.5877061220
  O         3.2110574824        5.4914658305       13.9036559162
  H         5.7872972741        9.0136341905       30.9023754689
  H         5.3119759273        8.1874455791       29.4694415166
  C         4.7762818081        7.2224909909       31.3702873742
  H        -5.8664959292        9.3575624413       24.7471690556
  H        -7.0230672238        8.7570545192       25.9026490573
  C        -7.5035223976       10.7651820184       25.1140371585
  C        -2.3937127606       16.0764582734       35.1582210995
  S         4.2925251526        9.6336711024       11.2307482555
  C         3.7413329826        6.5922673862       11.3043140946
  H         5.3396392546        7.4319427036       32.3123572713
  H         3.6734293702        7.1312501880       31.5976925187
  C         5.1944923584        5.8511466717       30.7466296991
  H        -7.0708358044       11.2599126482       24.2284896339
  H        -7.7076249557       11.5987924731       25.8450025851
  C        -8.7851599828       10.0540586122       24.6918948568
  H        -2.0095065441       17.0308941299       35.0568755493
  C        -2.9219277421       15.8501731365       36.4284011988
  H         4.5194261661        6.9445179172       10.6252510872
  H         4.0839097168        5.6239134612       11.5714105571
  C         2.3349729682        6.6668652036       10.6138891627
  H         4.5737532001        5.6169649910       29.9115255496
  H         5.0402382893        5.1123326341       31.4771702218
  C         6.7052798143        5.8900547349       30.4524331907
  H        -9.4371782467       10.5514961109       23.9730152318
  H        -8.4784399849        9.2224847498       24.2037757389
  C        -9.5473943529        9.8388924206       26.0060793562
  S        -3.7207120668       14.3661662667       36.9099932916
  C        -2.8407019634       16.9121230350       37.4504602550
  H         1.5750431672        6.7297643463       11.3168010540
  H         2.0919596735        7.5927951715       10.0726442417
  H         2.1751762559        5.9311056920        9.8618250020
  H         7.1829181097        6.5175514155       31.1687440013
  H         6.7708480490        6.2535678523       29.4223647725
  H         7.0891703643        4.8671150640       30.4210465819
  H        -8.8680399835        9.3850719654       26.7987253268
  H       -10.3384134070        9.0917407352       25.8179651420
  H       -10.0355125685       10.7054634343       26.4654642041
  C        -3.9549098262       15.1891692645       38.4178977055
  N        -3.6098041837       16.5050710017       38.5013060629
  O        -2.2698502516       18.0252329496       37.2673312546
  S        -4.8315657954       14.5008762683       39.7979075128
  C        -3.7387145693       17.2876430383       39.6393301723
  H        -3.8224143959       18.2787469805       39.2804983252
  H        -4.5758104350       17.0817906104       40.2527980531
  C        -2.5764927835       17.1309865738       40.6027609572
  H        -1.7261614492       17.5905341032       40.2337288780
  H        -2.8823610481       17.4879992405       41.6053763760
  H        -2.2973132259       16.0542252618       40.7289477491
  H         7.0449466757       11.4548736847        4.0759430532
  C         7.5303645121       10.5433635392        3.9744904218
  H         6.7551367671        9.7356242337        4.0819246754
  C         8.6180828766       10.2969136112        5.0462954311
  C         8.2141427876       10.3915648381        2.6006502399
  C         8.0610662330       10.3992465251        6.4596536096
  H         9.1008925456        9.2820918714        4.9401494981
  H         9.3707007327       11.0605871105        4.9709361502
  H         9.0552206462       11.1174272770        2.4906215377
  H         7.5578108550       10.6144620433        1.8063259081
  H         8.5857514111        9.3942212527        2.4016031356
  C         7.0304046457        9.3141168904        6.9141288958
  H         8.7735134628       10.5420503620        7.2513465020
  H         7.5052977267       11.3395541672        6.5326356535
  C         6.3464554856        9.5554009277        8.2591471250
  H         7.6771220676        8.4866036816        7.0087918984
  H         6.3172992377        9.1332339809        6.1428803399
  C         5.1548668863       10.4376124054        7.8783879202
  H         7.0284114478       10.0923667890        8.8788088493
  H         6.1626749873        8.6586631421        8.8117331594
  C         3.8438416459        9.7922497992        7.5808212900
  H         5.0160695591       11.0716048727        8.7310458151
  H         5.3557953601       10.9511728898        6.9788534236
  C         2.6432040497       10.6599717744        7.1578322862
  H         3.5497081242        9.2274910988        8.4228014606
  H         4.0946697403        9.2151494654        6.7603419331
  C         2.9561923552       11.9861835525        6.4409701710
  C         2.2697128861       11.3237585070        8.3543816785
  C         1.5155342568        9.8077589205        6.4896650904
  C         2.6559417530       13.1076927080        7.2008013153
  C         3.5396986602       12.3485536535        5.2229996290
  C         2.2542191524       12.6936570050        8.4474716307
  C         1.7912482830       10.7369133926        9.5089660528
  H         1.8543000516        9.3256905588        5.5549770756
  H         1.1900476672        9.0576492932        7.1767990496
  C         0.3548376179       10.6946040488        5.9401818029
  S         2.9080337227       14.6106491443        6.4498580247
  C         3.5784039487       13.7385002060        5.0754396895
  H         3.9283034595       11.5796767782        4.5112994465
  C         1.9495851192       13.3697759803        9.5841508379
  H         1.7014061280        9.6801945815        9.4710779735
  C         1.3967683360       11.3548998505       10.6553896989
  H         0.6186731335       11.6196284728        5.4349996039
  H        -0.2512206587       11.0519429468        6.7174891304
  C        -0.6195040609        9.8943379944        5.0294888328
  C         4.1285646718       14.5279555951        3.8854410790
  C         1.5375460189       12.6728599562       10.7549067378
  H         1.9237335485       14.4267292881        9.5766329752
  C         0.9350893265       10.8723670212       11.8862189051
  H        -1.5766406498        9.8681131182        5.4829920619
  H        -0.3439833655        8.8603558295        4.8730495788
  C        -0.7877850852       10.5647950751        3.6370188486
  C         4.1100109494       15.8996352343        3.6682175717
  C         4.6630356841       13.7490700556        2.7235147780
  C         1.0644079808       13.3001719623       11.9962349735
  C         0.7337089985       11.9542662350       12.7407232885
  S         0.7237845148        9.2943437999       12.5927759885
  H         0.1240808129       10.9294643756        3.1800177745
  H        -1.4547339844       11.4083387082        3.9147354618
  C        -1.5778105092        9.7193950410        2.6026617669
  N         3.7594213121       16.8518667124        4.6278566908
  C         4.3267162510       16.5233695912        2.3779983169
  C         5.0590609788       14.3715435918        1.5979669650
  H         4.7560387660       12.6815488864        2.6975695235
  C        -0.1613165591       14.2538397175       11.7604941544
  C         2.2563837780       13.9602758671       12.7564432821
  C         0.3844664186       11.5346741974       14.0196545313
  C         0.4024929832       10.1420198640       14.1258774783
  H        -2.2994902020        9.1450812371        3.1232910346
  H        -1.9977349599       10.4285153520        1.9344483665
  C        -0.6962413852        8.8264250045        1.6308782961
  S         3.7149328381       18.2917455109        3.9021080324
  N         3.9352843354       17.8717182030        2.3495858210
  C         4.7588959792       15.7912927696        1.2433593853
  H         5.3391129190       13.6492440325        0.8509821134
  H         0.0419071033       15.0753307570       11.0407111686
  H        -0.5115589317       14.6829884071       12.7166958444
  C        -1.2959759217       13.4861808734       11.1153896293
  H         2.4731268240       14.8614036303       12.1057630132
  H         2.0215183372       14.3039802547       13.7089881255
  C         3.5008739327       13.0116718568       12.8549859828
  H         0.1918361104       12.2739956919       14.7548433294
  C         0.1614579896        9.3356637002       15.3709061426
  H        -1.3588075863        7.9920769561        1.2984355667
  H         0.2377107932        8.4567341929        2.1574921780
  C        -0.3187020842        9.6868840548        0.3401116147
  C         4.8616797035       16.4582642585       -0.0038907582
  H        -0.9500667587       13.1145140813       10.1719509962
  H        -1.4832962630       12.5400385629       11.7001111146
  C        -2.4718539301       14.4341272288       10.6459495003
  H         3.9292765782       12.8065012432       11.8894335657
  H         3.2433309522       11.9840307391       13.1491251642
  C         4.5414941998       13.6967081935       13.7635637429
  C         0.1094772514        7.8962603000       15.4278170591
  C        -0.1259166362       10.0636599631       16.6381583186
  H        -0.0855948186       10.6408202069        0.7216781845
  H         0.5378818713        9.3183798249       -0.1739459274
  C        -1.5868285253        9.8798999091       -0.5601649388
  H         4.5172543617       17.4721324383       -0.0264433991
  C         5.1408343287       16.0441508841       -1.2882642375
  H        -2.1355508716       15.1854087842        9.9313533316
  H        -2.8345045952       15.0335166116       11.5079220144
  C        -3.6002565331       13.5000274227       10.1238094012
  H         4.7200296540       14.7441717472       13.5216662538
  H         4.0603393462       13.8893976166       14.7206531605
  C         5.8935369828       13.0387684830       14.0754207348
  N         0.3593158944        7.0138828816       14.4130784995
  C        -0.1992789592        7.2389430619       16.6284611243
  C        -0.3921016476        9.4104297813       17.7725885037
  H        -0.0754953787       11.1014781182       16.7021288457
  H        -1.5442247919       10.8349609224       -1.0105696080
  H        -2.5961579698        9.7450526772       -0.1153737887
  H        -1.6192878329        9.2009503653       -1.4424288926
  S         5.5059243856       14.4658093167       -1.8144762292
  C         5.1835325229       17.0386057564       -2.3579485108
  H        -3.1241324123       12.9271912346        9.3463948553
  H        -3.8128232578       12.7679624364       10.8804481130
  C        -4.8500319537       14.3194924470        9.7461583669
  H         6.0559609383       12.2854539598       13.3630412929
  H         5.7541942433       12.5910085322       15.0469729863
  C         6.9565581825       14.1609571445       14.2068974620
  S         0.3095655863        5.5194917066       15.0428751237
  N        -0.1988784380        5.8411200954       16.5931786618
  C        -0.5270273810        7.9172172578       17.8491901061
  H        -0.3719115961        9.9885441717       18.6853249837
  C         5.5680530686       15.1238748165       -3.4388804015
  N         5.5316485427       16.4613460269       -3.5119852173
  O         5.0615957401       18.2616945045       -2.1761043631
  H        -5.2037626648       15.1217575234       10.4651997191
  H        -4.3072971194       14.8357943515        8.9634592255
  C        -5.7969315777       13.2778949276        9.1490685975
  H         7.9087614566       13.5116483221       14.2059284880
  H         6.9364020239       14.8202358064       13.3066717077
  C         6.8103436383       15.0125271094       15.4770109007
  C        -0.8769949817        7.1128939961       18.9998884986
  S         6.0453349710       14.2291032497       -4.8770128707
  C         5.4811767270       17.2201653062       -4.7425757681
  H        -5.3456259252       13.0258689404        8.2183783790
  H        -5.8135116323       12.3194694667        9.6505717741
  C        -7.1848931680       13.7505637964        8.8255739598
  H         7.2661371383       14.4109013795       16.2594458500
  H         5.7861813853       15.0946353897       15.7218633246
  C         7.5920812125       16.3520163414       15.4304151688
  H        -0.6333768404        6.0289881404       18.8662858992
  C        -1.3365303694        7.4538596482       20.2770021898
  H         6.2552602603       16.8749460941       -5.4133548140
  H         5.8911169659       18.0792235788       -4.4434170308
  C         4.1237698583       17.2811123583       -5.3378857772
  H        -7.7545697705       12.9881557923        8.3518139786
  H        -7.0643952594       14.5186227636        8.1650034984
  C        -7.9870142134       13.9809678223       10.1603159682
  H         7.6993032947       16.7321495986       16.4394972458
  H         8.5859788483       16.2954643608       15.1130908001
  C         6.8754529602       17.3815418515       14.5810045559
  S        -1.9124819516        9.0337796493       20.6919226790
  C        -1.5045015071        6.4172515151       21.3003910163
  H         3.3257319548       17.5257849913       -4.6571927514
  H         3.8673878399       16.2816343332       -5.8555150332
  H         4.0732335119       17.9496054368       -6.2025480977
  H        -7.9346893570       13.0019615564       10.6386969449
  H        -7.5093097091       14.7241519764       10.7906082016
  H        -9.0607187300       14.3584160055       10.0445629128
  H         7.2791755151       17.3695531436       13.5489185409
  H         5.8692029717       17.1537398268       14.2600818120
  H         7.1848092132       18.3627188030       14.9680984202
  C        -2.3674841344        8.3154237179       22.2743248553
  N        -2.1460279459        6.9471302942       22.3102671904
  O        -1.1493427342        5.2668452011       21.1290969813
  S        -3.1610744634        9.0974019248       23.6412786202
  C        -2.2715912039        6.1886404947       23.4783180498
  H        -2.5230767165        5.1528662639       23.1860131199
  H        -3.1593344100        6.4435259247       23.9828051405
  C        -1.0603887751        6.1434560882       24.3780470310
  H        -0.2712616031        6.8451690740       23.9745144253
  H        -0.6206730360        5.0862480667       24.3113525930
  H        -1.1656392620        6.4391780603       25.4012671108
