352
i =
  H        -3.6323576176       14.5388439035       15.7660029777
  C        -3.3294866092       13.5006111411       15.9059276214
  H        -4.2312335379       12.8532614363       15.9735277376
  C        -2.3410960879       13.3513863106       17.0968945121
  C        -2.6263906792       13.1464013579       14.6101317668
  C        -2.9912489449       13.3967152538       18.4398127013
  H        -1.7559192903       12.4780827687       16.9814063974
  H        -1.7527188182       14.2668132435       17.0446016075
  H        -2.9398158252       13.7275509656       13.7726364309
  H        -1.5053020651       13.2020651522       14.7168189064
  H        -2.7739690839       12.0865525841       14.3595154815
  C        -1.9075231130       13.1364362667       19.4994639036
  H        -3.8389199849       12.6628895051       18.5246050064
  H        -3.4887958529       14.3856339750       18.7036259607
  C        -2.5242530950       13.2868015961       20.8663533980
  H        -1.4388920271       12.1899795360       19.3081458253
  H        -1.1645063991       13.9656742540       19.4179438883
  C        -1.6287951147       12.7695831510       22.0803065543
  H        -3.5003240331       12.7702821761       20.8770433995
  H        -2.7287345601       14.4100828656       20.9538829912
  C        -0.4851703966       13.7241665212       22.2341008536
  H        -2.1473086033       12.4873490103       22.9975383566
  H        -1.3222648781       11.7684148485       21.8299836958
  C         0.8111029845       13.1380213626       22.9445446448
  H        -0.0312047398       14.0476361458       21.2947248389
  H        -0.8055135768       14.5170524074       22.9090733909
  C         1.3811810445       11.8619994532       22.3062989206
  C         0.4352099682       12.4084761047       24.2210834601
  C         1.8630367271       14.2612666498       23.2322251106
  C         1.3017438380       10.7244925003       23.1437053874
  C         1.9019348015       11.5372572740       21.0497256097
  C         0.7807921828       11.0994456052       24.4006127818
  C        -0.1601383991       12.9772532853       25.3388439282
  H         2.1435837682       14.9374665116       22.3776066032
  H         1.6312826237       14.8608121945       24.0969438900
  C         3.1805832862       13.7135141245       23.8035797828
  S         1.8901598714        9.2693081941       22.4589428699
  C         2.2987338563       10.2140216620       21.0248783223
  H         1.9202822431       12.2717529624       20.2041200831
  C         0.5511562479       10.4940981052       25.5459388045
  H        -0.2631594029       14.0504134663       25.2714377738
  C        -0.3108573321       12.3721568683       26.5050379806
  H         3.6113445922       12.9644846165       23.1798670390
  H         3.0831613966       13.2454798852       24.7587993679
  C         4.2991035479       14.8184158597       23.9417756923
  C         2.7635387429        9.5075314921       19.7937086111
  C         0.0298803064       11.0674938781       26.6798436542
  H         0.7149550030        9.3638273678       25.5379864468
  C        -0.6693771696       12.8115941821       27.8167024068
  H         4.9989803335       14.4995879759       24.7288436843
  H         3.8510026972       15.7449523582       24.3458321173
  C         4.9410976458       15.2087207032       22.6184891112
  C         2.7477093375        8.1264247546       19.4620095829
  C         3.3327875614       10.4308590327       18.8127720092
  C        -0.3689262188       10.3699695469       27.9523320382
  C        -0.6858245961       11.7157124609       28.7037131177
  S        -1.1582416978       14.2743948569       28.5533657795
  H         5.0742784769       16.3180909854       22.6406710810
  H         4.3078598967       14.9912894434       21.7470751843
  C         6.3338165564       14.7197395081       22.3677680417
  N         2.2936242583        7.1300791003       20.3644633231
  C         3.0746641991        7.6998284049       18.2228871179
  C         3.6801461261       10.0097177287       17.5511311057
  H         3.6100726324       11.4819811600       19.0439960630
  C         0.6757805124        9.5592274718       28.7223849250
  C        -1.6560260655        9.3763791924       27.7524852711
  C        -1.0402255540       12.1343528378       30.0035747188
  C        -1.2545403328       13.4815970264       30.1199031138
  H         6.7495363134       15.2117448826       21.4548340109
  H         6.9294906417       14.9097125081       23.2093175783
  C         6.4939785131       13.2039574482       22.1175266030
  S         2.2606569465        5.7271042050       19.5579903888
  N         2.8490864249        6.2668946051       18.1325834597
  C         3.4592883637        8.5316761935       17.1513041342
  H         4.0350478026       10.7485878676       16.8099495188
  H         0.8747886604        8.5899990151       28.2277773839
  H         0.2353473153        9.3638217706       29.7407030505
  C         1.9002501835       10.4400201668       29.0586731468
  H        -1.3654300758        8.7165570293       26.9470415761
  H        -1.6893044580        8.8262120575       28.6693635319
  C        -2.9192452550       10.2332283633       27.5072840217
  H        -0.9601753005       11.4924470341       30.8580882965
  C        -1.6249731039       14.2895863261       31.3168938620
  H         5.8915630149       12.6709076754       22.8498690957
  H         7.5328846293       12.9631876866       22.3338978653
  C         5.9111762226       12.8565210715       20.7865126704
  C         3.5226867938        7.8525988203       15.8720662239
  H         2.2132304326       11.1522465176       28.2240713792
  H         1.7634355070       11.1211832750       29.8957926072
  C         3.1663699917        9.7003583187       29.6086933309
  H        -2.8233412163       10.9894320654       26.6956222619
  H        -3.2495286702       10.8257578079       28.3695584726
  C        -4.1519522432        9.3967516862       27.1393379847
  C        -1.5623140843       15.7002031550       31.4908778424
  C        -2.1216948771       13.6507215714       32.5307591565
  H         5.6498793753       11.8352036842       20.7645355902
  H         4.9301582011       13.2316236368       20.5517010378
  C         6.9022602090       13.1148424915       19.6384417345
  H         3.2448082342        6.8453388735       15.8559634612
  C         3.8103412428        8.2456610219       14.6073494218
  H         3.5598961569        8.9147121567       28.8870326332
  H         2.8917085835        9.1265690864       30.5094162369
  C         4.3131758710       10.6402746740       30.0313128102
  H        -3.8967233742        8.7865320352       26.2788250505
  H        -4.2947530033        8.7187075815       28.0522683317
  C        -5.3524844556       10.2426141459       26.9234182655
  N        -0.9462061517       16.5112873117       30.5669254033
  C        -1.9120021764       16.3932749692       32.6544645978
  C        -2.6168873187       14.3080794820       33.6423091461
  H        -2.1767522825       12.6297254020       32.6147026677
  H         7.5371164532       14.0284249746       19.7239837282
  H         7.4967481570       12.2687289347       19.3227596690
  H         6.2627585092       13.4664922620       18.8442520575
  S         4.1866317944        9.8721964320       14.0964560063
  C         3.8213399688        7.2370137822       13.5353737349
  H         4.3099871535       11.4569178050       29.3370461884
  H         4.0752129232       11.0277818049       31.0147854480
  C         5.7448711897       10.0017067584       29.9138724298
  H        -4.9377885032       11.2737348439       27.1855942573
  H        -6.0622548052       10.0551903951       27.7047332514
  C        -6.0044851631       10.2698499768       25.5698392233
  S        -1.0615304740       18.0835584065       31.0799515467
  N        -1.6636210458       17.7619545760       32.5602998574
  C        -2.4708700274       15.8000155040       33.7439280902
  H        -2.9669629183       13.7641251255       34.5092252854
  C         4.2420887799        9.1852099120       12.4314192437
  N         4.1187859647        7.8378516569       12.3344181096
  O         3.6687595153        6.0049583618       13.7782639551
  H         6.5758638527       10.6439677207       29.7473311695
  H         5.8359465025        9.3630758654       29.0277919678
  C         5.9671855280        9.1539261543       31.1096828886
  H        -5.3393026159       10.6851744324       24.8687440609
  H        -6.0879671169        9.2114045692       25.3195170092
  C        -7.3514368338       10.9947852356       25.5727467965
  C        -2.7942389789       16.5824877520       34.8638836388
  S         4.7439643829        9.9759713382       10.9258036132
  C         4.2074634679        6.9968496960       11.2028485108
  H         6.9865744972        9.3232292201       31.4622868955
  H         5.3626663674        9.5184454468       31.9408121386
  C         5.7040812743        7.7064620914       30.8140724968
  H        -7.1625527761       12.0140444980       25.3699623418
  H        -7.8119926851       10.8262929908       26.4728077121
  C        -8.3580604238       10.4526518299       24.5415594110
  H        -2.4618021538       17.6040363417       34.8087442629
  C        -3.1584754736       16.2845209006       36.1476779293
  H         4.8872388907        7.3843984527       10.4694688818
  H         4.5728636638        5.9916766651       11.3064067992
  C         2.8979220911        6.9850053206       10.4445630928
  H         6.3203374476        7.4757087912       29.8897409297
  H         4.6310893765        7.6323884949       30.6667168694
  C         6.2031720618        6.8852311057       31.9831508324
  H        -8.4921579818       11.0235630437       23.6467820426
  H        -8.0656117995        9.4012597702       24.2505570898
  C        -9.8391284650       10.3468837603       25.0375803347
  S        -3.4624819195       14.6779051407       36.8500831505
  C        -3.2740497700       17.4153869958       37.1804335475
  H         2.6394167715        7.9619288081        9.9566239228
  H         3.0079744237        6.2011191405        9.7680387625
  H         2.0217842174        6.6839583416       11.0567327159
  H         5.4996691011        6.7442253297       32.9107631605
  H         7.1267680311        7.2879612665       32.4735447407
  H         6.4244486555        5.9080468073       31.5986121734
  H       -10.3771388771       11.3072586911       25.1297318556
  H        -9.8666051335        9.7648714976       25.9824152101
  H       -10.3688294729        9.6640972657       24.4396085993
  C        -3.6924309221       15.5362431254       38.4053141994
  N        -3.6508356817       16.9155916771       38.3101110732
  O        -3.0343631468       18.6065271740       36.9459863816
  S        -4.2311532056       14.8291096720       39.9346140979
  C        -3.7769818758       17.8045143901       39.4900824322
  H        -3.9388470641       18.8103575125       39.0926168806
  H        -4.6589902257       17.7480275267       40.1595505745
  C        -2.4996924591       17.8418841960       40.3379955541
  H        -2.5479552858       17.0440206534       41.0151121250
  H        -1.5806539915       17.7195602304       39.7656795597
  H        -2.4761729162       18.7015212789       40.9092875594
  H         7.0814301915       10.9100945725        3.3579755024
  C         7.7541130128       10.0488805780        3.4443389184
  H         7.1129328796        9.2152770474        3.5424954913
  C         8.7238129105       10.2016455385        4.6243503966
  C         8.4294368266        9.9001493108        2.0649055898
  C         7.9981789549       10.4164963259        5.9785679780
  H         9.3855547702        9.3926245162        4.6476385952
  H         9.3499260660       11.0212739545        4.3702288616
  H         9.0088340868       10.7770360515        1.8885265055
  H         7.7777109880        9.7063471223        1.2703676516
  H         9.0981846968        9.0586775672        2.0449037197
  C         7.0663806842        9.2346820619        6.4314387098
  H         8.6272433523       10.6415721890        6.8440645372
  H         7.3824706850       11.2760214846        5.8351835229
  C         6.1556475620        9.6839154455        7.6294499152
  H         7.5255557471        8.2655390364        6.6113569083
  H         6.4003341403        8.9063533112        5.5852677874
  C         5.0794261752       10.7348313278        7.3035296372
  H         6.8243887183       10.0681712318        8.4595690079
  H         5.5438400705        8.8443524568        8.0164834427
  C         3.7243481236       10.0316394815        6.8858955218
  H         4.9813274800       11.2844579189        8.2374418536
  H         5.4263215688       11.4305529561        6.5192285129
  C         2.5340992889       10.9872550330        6.6755764454
  H         3.4129733079        9.3312911585        7.7004102283
  H         3.8783440947        9.4887435493        5.9520301678
  C         2.8430696606       12.3903227671        5.9736780097
  C         2.1707408251       11.7135731863        7.8972066555
  C         1.2967637010       10.2740624539        6.0394067064
  C         2.5841767590       13.5271338405        6.7417455948
  C         3.3147156314       12.7653270253        4.6920927208
  C         2.2113815214       13.0832439277        7.9829020403
  C         1.8191790662       11.0214166428        9.0458738151
  H         1.6367490848        9.7471742237        5.1433790526
  H         1.0330508664        9.4306869660        6.6787715881
  C         0.0596216258       11.1486918054        5.7159925437
  S         2.9643252210       15.0476858609        6.0083387537
  C         3.5204600344       14.1228981552        4.5454311814
  H         3.4228183430       11.9414691082        3.9819822771
  C         1.8686112424       13.6877724399        9.1718456989
  H         1.8737617279        9.9403663211        9.1023765534
  C         1.5110112920       11.6088030883       10.2595292447
  H         0.3365767907       12.1889174161        5.4211118757
  H        -0.5375642312       11.1422250804        6.5809748490
  C        -0.7233550038       10.6290519655        4.5125108835
  C         4.1262154347       14.7334355297        3.2828473703
  C         1.5174610967       12.9570434377       10.3471302016
  H         1.8054759412       14.7525807224        9.2759297439
  C         1.1215868145       11.1796965695       11.5132556975
  H        -1.5906639748       11.3330314937        4.3546915875
  H        -1.0326911363        9.6217138243        4.7928752765
  C         0.0845847405       10.7205010140        3.1731689935
  C         4.2880065042       16.1109882930        3.0549551560
  C         4.5241365906       13.8279026082        2.2016272214
  C         1.1396052985       13.5824969215       11.6358113600
  C         0.9542918733       12.2683176624       12.3424661025
  S         0.8648097233        9.7165933052       12.3032471345
  H         0.9192549391       10.0120157072        3.1610482963
  H         0.4911185208       11.6951481206        3.0861676955
  C        -0.7529016625       10.3735162420        1.8852769783
  N         4.0745162849       17.1609172605        3.9862735375
  C         4.6790459988       16.6060961476        1.8228480402
  C         4.9214646759       14.3033674506        0.9985200930
  H         4.5357647899       12.7689497232        2.3590148970
  C        -0.2431093813       14.2342325843       11.6185653189
  C         2.2792905840       14.4559835860       12.2687632521
  C         0.6766162105       11.9137809749       13.6757096179
  C         0.5918908210       10.5430458383       13.7969207614
  H        -1.3936486764        9.5444338208        2.3293361296
  H        -1.4745497106       11.1234585292        1.5870293549
  C         0.1588287121       10.0586635109        0.6781225619
  S         4.2461746578       18.6272204337        3.2475387509
  N         4.6906873859       18.0239612445        1.8158017371
  C         4.9296484054       15.7768100213        0.7025468326
  H         4.9875428109       13.6264787974        0.1828290187
  H        -0.0882766299       15.1281941925       11.1080904994
  H        -0.5232563850       14.4668308677       12.6047233624
  C        -1.4439562111       13.3975839198       11.0757452200
  H         2.6199223402       15.2796330213       11.5795136692
  H         1.9753948932       15.0724429576       13.1429833380
  C         3.4252884943       13.5813724348       12.8643615512
  H         0.7127706248       12.6900041849       14.4186791831
  C         0.4347251882        9.8177565843       15.0994184688
  H         0.6993032034        9.0809358362        0.6637506145
  H         1.0371061566       10.6992259206        0.7572410272
  C        -0.3849166008       10.4078100554       -0.7352609413
  C         5.1949591787       16.4123605025       -0.5310751896
  H        -1.1661068135       12.9948409310       10.1184976480
  H        -1.5919685974       12.4828825510       11.6088491516
  C        -2.6857359948       14.1464390360       10.9503941834
  H         3.6124979426       12.7966995783       12.1242133361
  H         3.1120542578       12.9625492701       13.7550752796
  C         4.6485423339       14.3756302494       13.1654185180
  C         0.3271551209        8.3974236263       15.2818716488
  C         0.1549558605       10.5642427536       16.3624068510
  H        -0.2044555641       11.5106310142       -0.8290913533
  H         0.2530070113       10.0589019268       -1.4691302331
  C        -1.8312336484        9.9990245431       -0.9663123218
  H         5.2035710207       17.4988264064       -0.4838614083
  C         5.5302406379       15.9406211355       -1.7853770361
  H        -2.4056355624       14.8946959581       10.2028748853
  H        -3.0075350469       14.8280058114       11.7799517370
  C        -3.7104977568       13.1887328245       10.3992512917
  H         4.8489339292       14.9491314198       12.2080686929
  H         4.3184923918       15.2308808595       13.7867220696
  C         5.8864381325       13.5915796237       13.7339724334
  N         0.5954997242        7.4800377486       14.2944182619
  C        -0.0156889178        7.7377192555       16.4672114154
  C        -0.1003156499        9.9087920578       17.5380891179
  H         0.2521911160       11.5886248258       16.3259365736
  H        -2.5334538068       10.8320614274       -1.0015654567
  H        -2.2382310833        9.2599638976       -0.2320558235
  H        -1.8612223537        9.5753870350       -1.9587179485
  S         5.8462898595       14.3364578425       -2.1889504400
  C         5.6744961607       16.9180526746       -2.8691789411
  H        -3.2601217688       12.3888728681        9.9465718637
  H        -4.3845864313       12.8561084661       11.1665261588
  C        -4.5657377867       13.8997435837        9.3550890494
  H         6.5476493619       13.2253316168       12.9384883190
  H         5.5506184984       12.6841490898       14.1807865425
  C         6.5534250215       14.4385929630       14.7473970220
  S         0.5249386662        5.9663683220       14.8534043558
  N        -0.0597032164        6.3297748376       16.3422123328
  C        -0.2521653633        8.4240571987       17.6727517872
  H        -0.1962082702       10.4355594362       18.4492096793
  C         6.1963097205       14.9169105115       -3.8028771774
  N         6.1351063730       16.2795119378       -3.9094025009
  O         5.3867419291       18.1290591460       -2.7546089768
  H        -5.1116244914       14.6488223855        9.8527389885
  H        -3.8373661929       14.3171393625        8.6855820600
  C        -5.6818038754       12.9740373267        8.8204801480
  H         5.8297584797       14.7790437403       15.4319660479
  H         7.3893443920       13.9153117850       15.3710966438
  C         7.2677649770       15.5556404029       14.1243318125
  C        -0.5451490470        7.6439122692       18.8327810293
  S         6.4641978320       13.9736344543       -5.2914439848
  C         6.2092975219       17.0611911895       -5.1977620843
  H        -5.2391143871       12.3750254133        8.0408597544
  H        -5.9752558979       12.2559523573        9.5538066460
  C        -6.9011166449       13.6701580475        8.1820931968
  H         6.6074107467       16.2332587621       13.5252777055
  H         7.9962808717       15.1316779255       13.3932794591
  C         7.8718115334       16.5858535218       15.0501605194
  H        -0.3669065993        6.6089607829       18.7447263544
  C        -1.0539980111        7.9306469941       20.0420421765
  H         6.9003804612       16.5747862006       -5.8274403174
  H         6.5825208617       18.1495102108       -4.9489776859
  C         4.7919030884       17.0732175311       -5.8224077123
  H        -7.3962623313       13.2722713111        7.3430656800
  H        -6.5388754998       14.6491365361        7.7514392988
  C        -8.0360040404       13.9485501280        9.2936260448
  H         7.4637725869       16.5086919458       15.9973018141
  H         8.9448306780       16.3963663483       15.0312305411
  C         7.7173501200       18.0355345819       14.5873215925
  S        -1.5594371546        9.4742536925       20.4934281180
  C        -1.3363956322        6.8965606949       21.0205764283
  H         3.9278504872       17.3553097638       -5.2041496376
  H         4.5732255593       16.1880967982       -6.3586119186
  H         4.7611974647       17.9119609628       -6.5569378610
  H        -7.8783424236       14.8515047434        9.9664525945
  H        -8.9725490128       14.2200438619        8.8235601874
  H        -8.0420999964       13.0808297155       10.0495177946
  H         8.2970633025       18.2338661663       13.6638855920
  H         6.6938491873       18.3959446649       14.3722708398
  H         8.0884500516       18.8187178118       15.2407391546
  C        -2.0439825642        8.7471859642       22.0340746653
  N        -2.0382702062        7.4186391534       22.0120592674
  O        -1.1964637822        5.6858808519       20.6642768859
  S        -2.9608362008        9.4943202809       23.3352377181
  C        -2.1094024121        6.6330531928       23.2707387513
  H        -2.2332822160        5.5841886192       22.9300366868
  H        -3.0667714440        6.9048985775       23.7266554994
  C        -0.9007433584        6.7007515868       24.2578630671
  H         0.0904874505        6.6772428191       23.7200434136
  H        -1.0014166357        5.7788148376       24.8172727809
  H        -0.7906631517        7.5683167707       24.9456437359
