352
i =
  H        -3.5931513355       14.4713493590       16.5542790447
  C        -3.1885533262       13.4471738875       16.5566559597
  H        -3.9338447405       12.7674523006       16.9175252252
  C        -2.0103379017       13.3562689266       17.4938573639
  C        -2.7909862890       13.0792127615       15.1265857199
  C        -2.3385641379       13.7856387566       18.9114995125
  H        -1.6508154687       12.3070746264       17.5806733169
  H        -1.1178082235       13.9986145874       17.2494484745
  H        -3.4339954753       13.5952524993       14.4337624722
  H        -1.7649754203       13.3776210826       14.9446408955
  H        -2.7744671615       11.9549225842       15.0236913012
  C        -2.5897221416       12.5703349012       19.8770379019
  H        -3.0191641523       14.6332012815       19.0645103141
  H        -1.4748108996       14.3227561562       19.3561889841
  C        -2.7232116100       12.9377798768       21.3598672681
  H        -3.4107353502       12.0242259217       19.5119290540
  H        -1.6906584451       11.9787654512       19.7834517002
  C        -1.5348178152       12.5268171810       22.1974915961
  H        -3.4898149146       12.2844546211       21.7973266137
  H        -2.9169590559       13.9467133365       21.4879517182
  C        -0.3540421794       13.5052978458       22.4687495563
  H        -1.9514871090       12.1073622225       23.1096506855
  H        -1.1201826814       11.6292875875       21.8579992505
  C         0.8243934087       12.8284405631       23.1915317316
  H        -0.0493840419       13.8029339020       21.4430611870
  H        -0.6729287962       14.4440159740       22.9132991500
  C         1.3143564650       11.4860633599       22.5094384571
  C         0.3953540937       12.0715545878       24.3861611579
  C         2.0589978281       13.8012554792       23.4027524727
  C         1.1565621056       10.4135466621       23.3457395930
  C         1.8070299731       11.0746032775       21.2580741483
  C         0.5354676145       10.7165617627       24.5019098082
  C        -0.0899904863       12.7116658726       25.5388254286
  H         2.2394990609       14.2618264343       22.4309223359
  H         1.8192901867       14.6440378681       24.0326902107
  C         3.2751625164       13.0134403274       23.7786352049
  S         1.8759011584        8.9729106922       22.6815279790
  C         2.0916600662        9.7517220974       21.2095575708
  H         2.0554605498       11.8157193760       20.5341510545
  C         0.1406305685       10.1005610535       25.6787916623
  H        -0.2174733473       13.8929756567       25.6653483975
  C        -0.4081867455       12.0458921883       26.7247266578
  H         3.5932725710       12.2242886390       23.1258746214
  H         3.1000430104       12.6983157652       24.8222352492
  C         4.4249921896       13.9686534179       23.9498648995
  C         2.5256866351        9.0069756387       19.9771555848
  C        -0.3257004021       10.7361374646       26.8709201189
  H         0.3870655201        9.0988241992       25.8414450855
  C        -0.8803141659       12.4922462412       27.9759429876
  H         5.1477033919       13.7164431730       24.7404751834
  H         4.0353613341       14.8731971627       24.3276478610
  C         5.1684546701       14.3190158806       22.6689539201
  C         2.3978194194        7.5776293282       19.7571308290
  C         2.9111640537        9.8748231563       18.8012679746
  C        -0.8638340022       10.0978183894       28.1247354577
  C        -1.1966023309       11.3993973133       28.8186256167
  S        -1.1108119024       14.0350988600       28.7643523464
  H         6.0789706156       14.8694851546       23.0581484832
  H         4.6339697619       15.0139729212       22.0077449929
  C         5.8840094484       13.1797251919       21.8632669318
  N         1.9628740833        6.6465678450       20.6920771579
  C         2.6471976590        7.0431470104       18.4927985505
  C         3.2087968565        9.2295458375       17.6336299452
  H         3.0823065591       10.9369015068       18.8171410836
  C         0.0667077818        9.3846005151       29.0564447350
  C        -2.1046955511        9.2570714915       27.8332355709
  C        -1.5493965158       11.8012986627       30.0996172697
  C        -1.6172712056       13.1684726887       30.2469688346
  H         6.8843564657       13.4377170238       21.7096618400
  H         5.9540828404       12.2216061334       22.4310620174
  C         5.3380515880       12.8891834173       20.4783614377
  S         1.9705265483        5.1872034746       20.0050188777
  N         2.5217485416        5.6079187689       18.5595952452
  C         3.1554370078        7.7529602692       17.4428542385
  H         3.4240848625        9.8549010860       16.8205913779
  H         0.2568698964        8.4785395035       28.4583610971
  H        -0.5011028551        9.2253115966       29.9197465123
  C         1.4045673466       10.0814120027       29.2893419568
  H        -1.8862788389        8.4750759883       27.2007483005
  H        -2.4696217171        8.8198267557       28.7333843564
  C        -3.2577055565        9.9835174988       27.0799345921
  H        -1.7689409267       11.0872956328       30.8304340848
  C        -1.7814861498       13.8682178095       31.5532867937
  H         4.4154569507       12.3516340470       20.5069162154
  H         5.9893762685       12.0981463514       20.0147893289
  C         5.4007973395       14.0314593642       19.4276619907
  C         3.4122837279        7.1358719026       16.1849563778
  H         1.8893542686       10.4724271105       28.3757628260
  H         1.3060396003       11.0049609480       29.8690597925
  C         2.4176405786        9.1849741646       29.9739641828
  H        -2.8241710643       10.4031438678       26.1437240881
  H        -3.6518606756       10.8562168116       27.6286773650
  C        -4.4471415074        9.1245442394       26.7282871416
  C        -1.8036589137       15.3105386724       31.7049216436
  C        -1.9081834545       13.0561240212       32.8209413615
  H         4.5550529721       13.9845899487       18.7591334640
  H         5.2448986826       15.0012097429       19.8763841119
  C         6.7286240347       14.1618611441       18.7465402830
  H         3.2340155409        6.0917869256       16.2480595898
  C         3.6041966736        7.4944741701       14.8885148560
  H         2.6722207420        8.5982220600       29.1584409578
  H         1.8808969078        8.6856053848       30.7594214145
  C         3.6118137772       10.0017555062       30.5108397251
  H        -4.0902980068        8.2786331366       26.1377841048
  H        -4.7820609817        8.6760937252       27.6943110934
  C        -5.5126050980        9.8558685134       25.9631868970
  N        -1.5805954678       16.2067261002       30.6809405029
  C        -2.0650819314       15.8957776819       32.9326301364
  C        -2.1267161057       13.7388723829       34.0111118777
  H        -1.8328242349       11.9427159368       32.8611131719
  H         6.8881462405       13.2265173417       18.2859001627
  H         6.7293069264       14.9337036862       17.9827551586
  H         7.6029127833       14.2900061374       19.3865555510
  S         3.8954983843        9.1109824281       14.3551435152
  C         3.6907490750        6.3731507678       13.8771037820
  H         3.4362784472       11.0171968465       30.1836109070
  H         3.4566546396       10.0094345386       31.6188848187
  C         4.9369461523        9.3552508485       30.0526757778
  H        -5.1427052652       10.2096465021       24.9532121275
  H        -5.6315628361       10.7633954432       26.5473412042
  C        -6.8770246381        9.2241955263       25.9887697546
  S        -1.4587867665       17.6901606811       31.3652206666
  N        -1.9277799574       17.2629128601       32.8792222080
  C        -2.3171074105       15.1648958080       34.0837276025
  H        -2.3359414658       13.1583345576       34.9509457639
  C         3.9417162333        8.3928025684       12.7765583711
  N         3.9277687606        7.0588995605       12.7246481709
  O         3.6054621675        5.1279394569       14.0826416316
  H         5.7116109814       10.0259964644       30.3011830066
  H         5.1001046381        9.2212573476       29.0146192596
  C         5.1760758092        8.0951411755       30.8833506395
  H        -6.9045900359        8.1986866204       25.6275280694
  H        -7.1164044082        9.1635645416       27.0114433221
  C        -7.8463137353       10.0780474247       25.0959371721
  C        -2.6419401122       15.7886087087       35.3075317707
  S         4.2705055044        9.2788567516       11.3046939980
  C         3.9710341028        6.2952866644       11.4844069613
  H         5.7749981755        8.4143490932       31.7414041482
  H         4.2238695361        7.7669296934       31.4283668900
  C         6.0523387999        7.0503457332       30.1971520325
  H        -7.5528923309        9.9435191542       24.0445118022
  H        -7.7338817093       11.1701092602       25.3978506394
  C        -9.2282790422        9.6594223942       25.3047199024
  H        -2.5018554508       16.8267666305       35.3165192051
  C        -3.0790773281       15.2766992654       36.5425071443
  H         4.7049403374        6.7143065972       10.8264776852
  H         4.4176417811        5.2651832591       11.6159607281
  C         2.5340580258        6.2210275153       10.8211632426
  H         7.0484048508        7.5278115158       30.2510239125
  H         5.8042171577        6.9853846573       29.1692767915
  C         6.3192098295        5.7142346743       30.8676543557
  H        -9.9007008210        9.7726609163       24.4349335609
  H        -9.2935438940        8.5952814352       25.2075699547
  C        -9.8512291940       10.0146052946       26.6166036732
  S        -3.8262602395       13.7756815797       36.9343933738
  C        -3.2960958123       16.2452907081       37.6417192647
  H         2.5447264437        5.4565815038        9.9848678040
  H         1.7424900785        5.9411011224       11.5754277544
  H         2.1760648446        7.0988209311       10.2560985290
  H         6.6848553380        5.8426323489       31.8894966633
  H         6.9792112501        5.0711766300       30.2655252680
  H         5.3172761541        5.2582214008       30.8709984458
  H       -10.1377811147        9.1896284361       27.2441434116
  H       -10.6826948797       10.7265388234       26.5676941212
  H        -9.2032595132       10.6163105605       27.2240242690
  C        -4.1218745100       14.3867906019       38.5747321902
  N        -3.9082105319       15.7000439862       38.6677195733
  O        -3.0043419044       17.4373824696       37.5730539616
  S        -5.0349180698       13.6109358413       39.8515131845
  C        -4.0504526032       16.4967715332       39.9025628684
  H        -4.4187686366       17.4623934835       39.6657030039
  H        -4.8800719272       16.2760973961       40.6188274321
  C        -2.7134773736       16.5256348037       40.5925273648
  H        -2.1933266519       17.4742606060       40.6404063550
  H        -2.7332961633       16.0369543132       41.5726636958
  H        -2.0747859051       15.8353080152       40.0696161457
  H         7.2658257516       10.8582346306        2.2933471154
  C         7.9905143285       10.2979126607        2.9488612682
  H         7.5185699632        9.3858658228        3.2503148164
  C         8.4589092840       11.0776052476        4.1256175429
  C         9.1560246382        9.8432379459        2.0888154879
  C         7.5481191015       11.1255942523        5.3737684677
  H         9.3640808711       10.6677235787        4.6092967905
  H         8.7902751805       12.0617403155        3.8196124256
  H         8.8431156810        9.3818028117        1.1941875076
  H         9.8424963071        9.1580245923        2.5916962601
  H         9.6791757402       10.8022980886        1.8767236252
  C         7.3141928938        9.7803009630        6.1243393159
  H         7.8857740971       11.8087861203        6.1042433235
  H         6.5549510243       11.5914803232        5.0581120545
  C         6.5574733164        9.8527969032        7.4995470635
  H         8.2947187186        9.2973575500        6.2338456865
  H         6.7730614131        9.0814579719        5.4946406358
  C         5.2084713881       10.5755945563        7.4489333004
  H         7.0984668086       10.3938392376        8.2219065008
  H         6.5912580935        8.8332037497        7.8887500495
  C         4.0720425553        9.7773229455        6.7735520262
  H         4.8409724521       10.7114194448        8.4686402858
  H         5.3613006077       11.5966528234        7.0815674734
  C         2.7398329373       10.6063564066        6.5729207369
  H         3.8426565163        8.9811774757        7.4834902434
  H         4.3184831099        9.3400531642        5.8065366724
  C         2.9955512032       11.9989106477        5.9610324437
  C         2.2914833539       11.2708643169        7.8815319415
  C         1.6822663979        9.7343297102        5.8550583020
  C         2.8233297129       13.0539290812        6.8581113714
  C         3.3512523758       12.4114592583        4.6473648847
  C         2.3355759833       12.5952663367        8.0737135924
  C         1.8342538471       10.6187029952        9.0025428183
  H         1.9881827423        9.7019838113        4.8495645948
  H         1.8730367405        8.7415997267        6.2145757658
  C         0.2795759187       10.3045181974        5.9977047088
  S         3.3521226111       14.5825893167        6.2631668034
  C         3.7004195461       13.7596294287        4.7387705279
  H         3.4865334175       11.7746758540        3.8152604423
  C         2.0708623155       13.1911417675        9.3073326156
  H         1.9152574008        9.6063797822        9.0318284472
  C         1.5626147813       11.1740639411       10.2184259089
  H         0.4370212415       11.3914061864        5.7396803120
  H         0.0246331897       10.2591861753        7.0217345350
  C        -0.6284717026        9.5346942934        5.0412747649
  C         4.2427657685       14.5370216280        3.5587511026
  C         1.7375824547       12.4997906981       10.4648726237
  H         2.2082903991       14.2245514504        9.4139155041
  C         1.1590973637       10.7383014685       11.4889306124
  H        -1.6325651808        9.8851586685        5.2628812260
  H        -0.6258604174        8.4402496799        5.2597553668
  C        -0.4074622027        9.7548860497        3.5662162380
  C         4.1417873919       15.8942240166        3.3529224742
  C         4.9000760839       13.7535715935        2.5000839798
  C         1.3579855452       13.1491362244       11.7988067008
  C         1.0502690566       11.7767991134       12.3879457011
  S         0.8766559726        9.2141424137       12.1932905989
  H         0.0970891721        8.8140801300        3.2875655939
  H         0.2215012543       10.5315224570        3.2969693242
  C        -1.7223867642        9.8853961234        2.8081467643
  N         3.6839169106       16.8038625925        4.2769358168
  C         4.3630829096       16.4388132081        2.0658793009
  C         5.2554472634       14.3071852194        1.2992960365
  H         5.2955229353       12.7768359618        2.7810935982
  C         0.0729078979       14.0249152803       11.6661594872
  C         2.5329927546       13.9343236095       12.5546183178
  C         0.7030449305       11.3224523130       13.6678746476
  C         0.6111990863        9.9821730433       13.7000565528
  H        -2.4552881209        9.3867833199        3.3930791684
  H        -1.9922188891       10.9200571989        2.7891290732
  C        -1.6860448040        9.2281738810        1.3911789221
  S         3.5750927902       18.2520254665        3.4956443237
  N         4.0957442346       17.8210995302        2.0553128796
  C         4.7702542102       15.6503761870        0.9292019088
  H         5.8228697867       13.7442081663        0.5674665333
  H         0.3524384920       14.9039740057       11.1138240946
  H        -0.2900776809       14.3476388150       12.6569212016
  C        -1.0234371343       13.2816836173       10.9825162712
  H         2.9421290364       14.6437878788       11.8165120167
  H         2.1065308874       14.5286562632       13.4357998487
  C         3.6181274067       13.0972375327       13.3566445268
  H         0.6530371595       12.0240570918       14.4627793337
  C         0.3050496801        9.2110935355       14.9783546469
  H        -2.7134636846        9.3080587817        0.9170322771
  H        -1.5791345539        8.1904607443        1.4888189320
  C        -0.5611971989        9.7974303197        0.4988376413
  C         4.9473888767       16.2754779678       -0.3240059912
  H        -0.8103132613       13.0333941315        9.9398959387
  H        -1.2477116904       12.3493317094       11.4002476400
  C        -2.4229508886       13.9947597365       10.9834703937
  H         3.9828704685       12.3272839427       12.7489859517
  H         3.1467767630       12.4935096675       14.0794239415
  C         4.5431744127       13.9968075234       14.0853528722
  C         0.2269664748        7.8050741146       15.0194492938
  C         0.0198302723        9.9513764095       16.1885920065
  H        -0.6143794916       10.8658000746        0.8018792535
  H         0.3869317631        9.3605038454        0.8129482455
  C        -0.7843990175        9.7226623504       -1.0566093845
  H         4.7765993722       17.3335163198       -0.3073874270
  C         5.2250561404       15.8468555317       -1.6085121008
  H        -2.3527275575       14.8342858959       10.2831254253
  H        -2.6819278938       14.2979312185       12.0550680540
  C        -3.5782310822       13.1111631463       10.6502513362
  H         5.1323416528       14.4747950624       13.2862768607
  H         4.0073692930       14.7554117846       14.5588744244
  C         5.5386569080       13.1302854640       14.8841652275
  N         0.5090858194        6.8363646841       14.0079830426
  C        -0.1754358749        7.1048003005       16.1990422055
  C        -0.2655922962        9.2806648996       17.3962264932
  H         0.0089588578       11.0506764211       16.0651386249
  H        -1.8730360456        9.7406537803       -1.3543950239
  H        -0.3609794607        8.8068752188       -1.5025419769
  H        -0.2894239997       10.6466068400       -1.5660743474
  S         5.5538795551       14.2473517164       -2.1432144769
  C         5.1125358546       16.8359761345       -2.7529342476
  H        -3.4412963451       12.2213197326       10.0173996654
  H        -4.0242582622       12.6924935975       11.5662224853
  C        -4.6175275743       13.8908847688        9.9184035734
  H         5.2984434120       12.0851477500       14.5101611694
  H         5.2398810793       13.1474187330       15.9350162684
  C         6.9901548296       13.5681692671       14.5568232361
  S         0.2902364621        5.3641388372       14.5610387247
  N        -0.1276161007        5.7123747535       16.0459657422
  C        -0.3833301847        7.8066999105       17.4531998903
  H        -0.3544723592        9.8164603999       18.3134259015
  C         5.6959297169       14.9680867862       -3.6958697568
  N         5.2657793772       16.2029531068       -3.9117099057
  O         4.8868450014       18.0213363681       -2.6096313127
  H        -5.0462496310       14.6281732128       10.5810815015
  H        -4.2150805575       14.4362465797        8.9785925316
  C        -5.7231454635       12.9050222856        9.3201231884
  H         7.6520652664       12.9520786281       15.1868355577
  H         7.2190275421       13.3077782040       13.5205779837
  C         7.2200685694       15.0703756338       14.8129224365
  C        -0.7382605351        7.0590148792       18.5926608892
  S         6.5104212734       14.0667474269       -4.9563286309
  C         5.3336462203       16.8993554617       -5.1878563903
  H        -5.2005369829       12.4035788417        8.4844430956
  H        -5.8766345877       12.2163961659       10.1226508907
  C        -6.9564900207       13.6438489524        9.0079159452
  H         7.8574955775       15.1887254830       15.6595779674
  H         6.3169651486       15.6158625445       15.0689724877
  C         7.7991899313       15.8017519146       13.6746986641
  H        -0.4431853640        6.0571991019       18.4244965397
  C        -1.2305375325        7.4989534921       19.7885307334
  H         5.4350943704       16.2130793183       -6.0275420931
  H         6.0958521536       17.6533486995       -5.2987655713
  C         3.9681660717       17.5643565203       -5.3316708078
  H        -7.3378103167       13.3076763790        8.0107369531
  H        -6.6815033417       14.6617424433        8.8801966794
  C        -7.9627202078       13.4592523209       10.0921257934
  H         8.8053499111       15.4134338466       13.3390796945
  H         7.1877943435       15.6824856040       12.7831824790
  C         7.9874583196       17.3026308028       14.0157889287
  S        -1.7758279939        9.0342571590       20.2235614255
  C        -1.3403879648        6.4446092087       20.8331779360
  H         4.0469450682       18.5475980414       -5.0312088572
  H         3.3021190932       16.9889599314       -4.7431015883
  H         3.6177297052       17.5806038648       -6.3226263296
  H        -8.7673797404       14.1603873098        9.9638359992
  H        -8.2719430689       12.4787669095       10.1296923100
  H        -7.5514332015       13.6624086566       11.1004202959
  H         8.2516696008       18.0099226167       13.1800067996
  H         6.9762379723       17.6123828291       14.3352407086
  H         8.6703631817       17.3380941468       14.8738618197
  C        -2.0735208675        8.2943037802       21.8246474654
  N        -1.9629325484        6.9847603909       21.8670102365
  O        -1.0897220899        5.2607004359       20.5264015915
  S        -2.9016522238        9.1401535739       23.1250503667
  C        -2.3154678572        6.2609234967       23.0819275949
  H        -2.4558973356        5.2316976748       22.8304217097
  H        -3.3687273320        6.5438140392       23.3291388888
  C        -1.2339739490        6.3076899577       24.1842548493
  H        -1.5942548923        5.8905677690       25.1211369900
  H        -0.7464040151        7.2159512663       24.4489351005
  H        -0.4721271867        5.6501186068       23.7881896198
