352
i =
  H        -3.2644250078       15.0910614550       16.3780579574
  C        -3.1074993804       14.0005226038       16.5063324896
  H        -4.1056276224       13.5197192695       16.7361169090
  C        -1.9856412523       13.9425897421       17.5428756229
  C        -2.5457378040       13.3907794377       15.2148351842
  C        -2.6637023293       13.8532254367       18.8851071457
  H        -1.3551618535       13.0437387360       17.4258386063
  H        -1.3758160687       14.7424569317       17.3993349260
  H        -1.6470352380       14.0340943478       15.0581550830
  H        -2.2110478309       12.3441116286       15.3466102106
  H        -3.2544033558       13.4933740824       14.4596424950
  C        -1.8461152957       13.0996584053       19.9578131250
  H        -3.6402675845       13.4524940740       18.7907474552
  H        -2.8656319310       14.8837609053       19.1902223595
  C        -2.0210635439       13.5728729224       21.4676819550
  H        -2.0819392584       11.9901557046       19.8144564148
  H        -0.8154489413       13.1464100952       19.6261715731
  C        -1.0050446760       12.9436804394       22.4307820212
  H        -3.0219318480       13.2886682330       21.7809255297
  H        -1.7191339603       14.5884406194       21.4956687606
  C         0.1679145395       13.9115845023       22.7291271532
  H        -1.5048902441       12.7039301173       23.3433685018
  H        -0.7207016004       11.9992239443       21.9703125893
  C         1.4460524633       13.2302915380       23.3846796857
  H         0.4509591094       14.3724003064       21.7568908315
  H        -0.1806204486       14.7351404410       23.3051027468
  C         1.8077987750       11.8773757729       22.6985877265
  C         0.9733478508       12.5449864266       24.6075979972
  C         2.5829621862       14.2411291309       23.6046744090
  C         1.5222910580       10.7811020280       23.5066065598
  C         2.4315644631       11.5270948433       21.4983316290
  C         0.9610620303       11.1910863249       24.6799633035
  C         0.4613115877       13.1638938250       25.8463823990
  H         2.9276698761       14.6962452798       22.7252802691
  H         2.3075610765       15.1676808248       24.1620256762
  C         3.7472659960       13.5924112514       24.3367761590
  S         1.8301527423        9.2764625656       22.7528444358
  C         2.4130213660       10.1296679840       21.3693968919
  H         2.7526012725       12.2883914815       20.8335038382
  C         0.4597347278       10.6302710718       25.8068858299
  H         0.4285122991       14.2344592972       25.8868760633
  C         0.0276298169       12.4942344628       26.9832944139
  H         4.1796352248       12.8718088055       23.6626950110
  H         3.4908881730       12.9966886776       25.1691425021
  C         5.0064173488       14.5397549542       24.4931621804
  C         2.7247159545        9.3782386152       20.0719658115
  C         0.0064665380       11.1542170711       27.0058205115
  H         0.4630144765        9.5610149632       25.7147138118
  C        -0.4368284469       12.8332617507       28.1978532059
  H         5.8556292779       14.1451455316       25.0322282374
  H         4.6498592338       15.3246783645       25.0092805920
  C         5.6569608521       15.0432615993       23.1457205515
  C         2.7528463762        8.0308604728       19.8103861092
  C         3.2974335153       10.2838435439       18.9749062400
  C        -0.4600742827       10.4512798353       28.2483078092
  C        -0.7586454581       11.7538528575       28.9783473865
  S        -0.6451349160       14.3324050417       28.9215673934
  H         6.3358249193       15.8097103777       23.4853055845
  H         4.8962267444       15.4091373779       22.4377679644
  C         6.5607860349       14.0242788026       22.4295387894
  N         2.3738929897        7.0923150759       20.7059288351
  C         2.9847528271        7.5188041059       18.5447944991
  C         3.5760336799        9.7615242150       17.6758593272
  H         3.5353445238       11.3118527981       19.2475619860
  C         0.6344251075        9.6240550588       28.9961057631
  C        -1.7356993481        9.6512038748       28.0585965057
  C        -1.1347939913       12.1979268412       30.2406708037
  C        -1.1562621409       13.5589367490       30.3439159412
  H         7.5038971135       14.5267312381       22.2888193278
  H         6.6568148995       13.1773572709       23.1542199013
  C         5.8779926919       13.5520010103       21.1491910272
  S         2.4845130584        5.6370179129       19.9880183039
  N         2.7582012986        6.1592675155       18.4478742911
  C         3.3351979015        8.2798170887       17.4284402715
  H         4.0441768772       10.3990893538       16.9458655854
  H         0.8257139579        8.6656055198       28.4685746500
  H         0.2646881783        9.0974920509       29.9280951439
  C         1.9040645594       10.4129888041       29.2582035614
  H        -1.5711488968        8.8433143681       27.2626170011
  H        -2.0606071830        9.1160129373       28.9395933905
  C        -2.9699245730       10.5331896778       27.8222470472
  H        -1.2609834942       11.4904334710       30.9962317829
  C        -1.4158787360       14.3131490478       31.5895139589
  H         5.2077340151       14.2952601245       20.7375661602
  H         5.2984529293       12.6925998857       21.4064723530
  C         6.9603357806       13.0678316437       20.2505258732
  C         3.4723955476        7.6354983278       16.1878359736
  H         2.2959735107       10.7140506388       28.3395131710
  H         1.7085370356       11.3260240321       29.8570670987
  C         3.0174538122        9.5522061647       29.8525507375
  H        -2.7134728571       11.2658449498       27.0656439600
  H        -3.2213682210       10.9643232458       28.7487355634
  C        -4.2014155273        9.7211082176       27.3198910742
  C        -1.4412914213       15.7220165200       31.6995671475
  C        -1.6521976064       13.6163930521       32.8549969670
  H         7.8568674613       13.7802753036       20.3433088263
  H         7.2513378136       12.0833879680       20.4946889873
  C         6.5945038807       13.1744202475       18.7811176643
  H         3.4694600477        6.5632056923       16.1569087286
  C         3.8356772147        8.1286031849       14.9469832770
  H         3.4492520411        9.1781325768       28.9873326214
  H         2.6435171329        8.6359997710       30.2659437261
  C         3.9446413587       10.2758212580       30.8299655056
  H        -3.9116058133        9.0001790373       26.5278810869
  H        -4.6301026675        9.0927134450       28.0495124940
  C        -5.4148548110       10.6203109079       26.9728080381
  N        -1.0417969041       16.6284215229       30.7119917019
  C        -1.6806150695       16.3621445584       32.9056461742
  C        -2.0914374615       14.3062369135       33.9805884174
  H        -1.6027648201       12.5754987834       32.8425564324
  H         7.2379701938       12.6739453463       18.0560408735
  H         5.6482199803       12.7226727354       18.6194498496
  H         6.4678222115       14.2421259032       18.6024137214
  S         4.1477642338        9.6825988855       14.5039638976
  C         3.9383625561        7.1039386991       13.8645402735
  H         3.7769650888       11.3346066217       30.6348156625
  H         3.4983958240       10.1959393459       31.8288015947
  C         5.3815081234        9.9849294821       30.8434858631
  H        -5.1153721064       11.3438101355       26.2186757542
  H        -5.7332105778       11.1739701021       27.8730862815
  C        -6.5703341746        9.8221201924       26.5048450258
  S        -1.0222292862       18.1007329080       31.3078698662
  N        -1.5279427382       17.7330910650       32.7595366838
  C        -2.1256493900       15.7614859329       34.0914429703
  H        -2.3422308675       13.7281204032       34.8513389669
  C         4.5591624586        9.0541552591       12.8807514849
  N         4.3696766111        7.7139726023       12.7263731382
  O         3.7082602732        5.9401687578       14.0037498385
  H         5.9469460296       10.7285956307       31.4257446592
  H         5.8470401685       10.1006022703       29.8279539459
  C         5.5730384876        8.6075602744       31.5334423838
  H        -6.2233426653        9.2123595060       25.6262676165
  H        -6.9915247191        9.1884616599       27.3155294435
  C        -7.5733310190       10.7874687920       25.9771270646
  C        -2.5640374915       16.5753564105       35.1843455722
  S         4.8467056748        9.9767553932       11.4172097776
  C         4.3112459180        6.9557771041       11.4745895261
  H         6.1744089242        8.6228503149       32.4826037036
  H         4.5760838808        8.2613846134       31.8360695516
  C         6.3004853956        7.6335836224       30.6199600317
  H        -7.1673185772       11.5425931931       25.3232731131
  H        -8.0254383848       11.3535755667       26.8403980741
  C        -8.7287323779       10.0753040994       25.3112550014
  H        -2.3491681442       17.6581917674       35.1567008554
  C        -3.0027702412       16.2735846993       36.4221957012
  H         5.0342274883        7.4540730313       10.8148129447
  H         4.6677154090        5.9415301182       11.6467143082
  C         2.9222078726        6.9456967821       10.9393748814
  H         7.2674612675        8.0675427050       30.3521027759
  H         5.8080007123        7.4019334134       29.6593273802
  C         6.6849387280        6.3408549697       31.3345327294
  H        -9.0634318438       10.6981195761       24.5038138155
  H        -8.3485373625        9.2112152555       24.8122716463
  C        -9.8499680911        9.7781463556       26.2852159107
  S        -3.3343210605       14.6727639392       37.0611219159
  C        -3.1574592239       17.3975548975       37.3809698750
  H         2.4756806504        7.8604375659       10.5306637038
  H         2.9060613073        6.3592930682       10.0207335574
  H         2.2971912397        6.3652084046       11.6502665268
  H         7.2956712342        6.6633003409       32.1838856237
  H         7.2944043089        5.7660891244       30.6970443066
  H         5.7636907059        5.8441235755       31.7277313044
  H        -9.6597843546        8.8658418871       26.8193745883
  H       -10.7798142252        9.4535374166       25.8106289564
  H       -10.0169147092       10.4957663057       27.0122131366
  C        -3.8307567984       15.5681318692       38.5147769746
  N        -3.6929122576       16.9381445161       38.5323878951
  O        -2.9922362686       18.5769998971       37.1194861360
  S        -4.4897584447       14.7301695570       39.9591482165
  C        -3.9899690438       17.8572291584       39.6440666315
  H        -4.2532236648       18.8696453114       39.3846274568
  H        -4.8922770068       17.4785813426       40.1954736819
  C        -2.7729944757       17.8073524526       40.6189819520
  H        -2.8842783751       16.9484659009       41.2489610313
  H        -1.8355292694       17.9706866916       40.0562686474
  H        -2.7618406570       18.6646944500       41.2773151896
  H         7.3361853579       11.1493125736        3.8271469011
  C         8.0436508931       10.3354913920        3.6963747881
  H         7.5728669238        9.3629769357        3.7475209446
  C         9.0076902841       10.4612719738        4.9121526142
  C         8.8318808051       10.4688904960        2.4180555920
  C         8.2893523911       10.5710998309        6.2384937998
  H         9.6811945201        9.6011949472        4.9519190390
  H         9.4456375904       11.4430011261        4.7128192098
  H         8.2155522247       10.7416263087        1.5556968926
  H         9.3996970172        9.6049496597        2.1358941426
  H         9.5537674058       11.2703946087        2.5569217498
  C         7.2113191123        9.5053266653        6.5654457287
  H         9.1034811335       10.6144386389        6.9768106710
  H         7.8675720996       11.5532285301        6.2647036650
  C         6.5662018708        9.9122012327        7.8990618621
  H         7.8117574901        8.6033056810        6.7547364915
  H         6.5040527440        9.4195589786        5.6932063047
  C         5.3142528453       10.7843591823        7.8368780725
  H         7.2340869959       10.4989328013        8.4731652850
  H         6.1746051254        9.0190210083        8.4205974817
  C         4.0297950842       10.0712116417        7.3534855138
  H         5.1629990761       11.3400180846        8.7323480698
  H         5.7257439230       11.5473073904        7.1155995597
  C         2.7637832003       10.9313702059        7.1949854262
  H         3.7724405696        9.3162399413        8.1357737866
  H         4.2466686835        9.4941466690        6.4010914337
  C         3.0776559644       12.2525736528        6.5089217932
  C         2.4202463929       11.5543793208        8.5029409979
  C         1.6644070453       10.2249898216        6.3562513247
  C         2.7883207714       13.3176813112        7.3440615465
  C         3.6512546541       12.6937413887        5.2916376442
  C         2.4471867167       12.8927883739        8.6216948065
  C         1.9175382411       10.8734564066        9.6836992578
  H         2.0210119601       10.1839046719        5.4069540095
  H         1.6060020310        9.1050300448        6.5681397771
  C         0.3197883804       11.0478684911        6.3151812057
  S         3.1399286102       14.9383790968        6.7068457818
  C         3.7381291608       14.0597694066        5.2497714633
  H         3.9323503256       11.9307600033        4.5817200562
  C         2.0964426427       13.5007308992        9.7726215431
  H         1.7889115701        9.8231965475        9.6073654094
  C         1.4858759702       11.4910864379       10.8148211724
  H         0.4425095529       12.1007762054        5.9741178455
  H        -0.0302872115       11.0627540585        7.3186034326
  C        -0.7372035624       10.4183555261        5.4020571847
  C         4.1926654879       14.7769474645        4.0128921063
  C         1.6054614383       12.8458291127       10.8851938424
  H         2.1749816717       14.5690520802        9.8870337928
  C         1.0428878287       11.1098554271       12.0712829790
  H        -1.6766651827       10.9803986201        5.5375677617
  H        -0.9367576383        9.3758879312        5.7546847192
  C        -0.2101487274       10.3519548705        3.9404978939
  C         4.2282952396       16.1757760068        3.8648110107
  C         4.6717469821       13.8972554612        2.9311044105
  C         1.1659103963       13.5510178666       12.1320253475
  C         0.7955851850       12.2240197365       12.8995483772
  S         0.8435602011        9.5832466049       12.8673648016
  H         0.4997489531        9.5165443085        3.7426169591
  H         0.4068584839       11.1903356706        3.5622761216
  C        -1.3608033339       10.2745753353        2.9167250947
  N         3.9765956999       17.1953369890        4.8289380819
  C         4.4334795004       16.7062851839        2.5736196743
  C         4.9387973096       14.4747978414        1.6875784842
  H         4.6331059853       12.8818908504        2.9996861460
  C        -0.1841497959       14.4067013021       11.9661414719
  C         2.2053767456       14.4716647210       12.7618408447
  C         0.5215909197       11.8470998785       14.2199224202
  C         0.5149207844       10.4758708369       14.3522289559
  H        -2.2355528271        9.9047007816        3.3890926627
  H        -1.5707238197       11.2982164848        2.6186722841
  C        -0.9976508999        9.5426668214        1.6337006198
  S         3.8491449933       18.6171230749        4.0706735576
  N         4.1463404150       18.0479144122        2.5499760497
  C         4.8257915600       15.9457349614        1.4696920349
  H         5.2269971996       13.8116054366        0.9387545045
  H        -0.0535822823       15.2179271648       11.2869664777
  H        -0.4586088762       14.7929697867       12.9319064589
  C        -1.3897964268       13.5390017549       11.5890726186
  H         2.1769869552       15.4201806679       12.3238666833
  H         1.7587360614       14.5842899773       13.7752707999
  C         3.6349248339       13.8382274337       12.8501321412
  H         0.5217276241       12.5552014549       14.9588739650
  C         0.3329374566        9.6897449672       15.6259749387
  H        -1.9868616188        9.4263727536        1.1842767091
  H        -0.5894594685        8.5457225455        1.8914708022
  C         0.0339483258       10.3176827501        0.7002861506
  C         5.0481081927       16.6457056198        0.2359715095
  H        -1.1779213574       12.8014792022       10.8087287195
  H        -1.5916424651       13.0808640396       12.5057981722
  C        -2.6394585869       14.3138617950       11.2674129337
  H         4.3001431742       13.8762009384       11.9758312590
  H         3.5042720849       12.7468853779       12.9204349908
  C         4.5524439921       14.3243772422       14.0188538075
  C         0.3832620576        8.2410713728       15.8055960208
  C        -0.0162588769       10.4187491938       16.8991692254
  H         0.1581506920       11.3487933662        1.1185354707
  H         1.0183136107        9.7807341466        0.7961976256
  C        -0.2381086339       10.3002875964       -0.7733790153
  H         5.0571894810       17.7391232033        0.2742511137
  C         5.2705469820       16.2082769216       -1.0755392086
  H        -2.2169363597       15.2151154349       10.8036369524
  H        -3.0315894393       14.5524214355       12.2644649060
  C        -3.6697086171       13.6065785092       10.3327838063
  H         3.9170928918       14.7055415253       14.7974390845
  H         5.0609240822       13.4894757611       14.4503839853
  C         5.6194086786       15.3814377418       13.5963733543
  N         0.6026402357        7.3478925874       14.7866466986
  C        -0.0260550260        7.6189514346       16.9523153189
  C        -0.1287620649        9.7650076047       18.1344960829
  H         0.1264097543       11.4785210266       16.8034988211
  H        -0.9842110041        9.4870036620       -1.0526950497
  H         0.6652642877        9.9248543954       -1.2819082320
  H        -0.5174595283       11.2762476356       -1.0987945366
  S         5.5662215050       14.5857574214       -1.6105218130
  C         5.4239285035       17.2657463308       -2.1231365479
  H        -3.0817272575       13.1275842345        9.5766654670
  H        -4.1077080405       12.7673157128       10.8113298921
  C        -4.8319188705       14.4930593032        9.7409113866
  H         5.2894892667       16.2034377955       13.0102443426
  H         6.3548424911       14.8680563856       12.9654156560
  C         6.2149754962       15.9329854827       14.8598760356
  S         0.5162787247        5.8053220546       15.3462514316
  N        -0.0165334913        6.2289131241       16.8202952245
  C        -0.3511950737        8.2914644861       18.2019784133
  H        -0.1047403396       10.3180834918       19.0111760933
  C         5.9079246691       15.3231286544       -3.1870170230
  N         5.8453886218       16.6614737944       -3.2530712625
  O         5.3366016831       18.5266313034       -1.9140761297
  H        -5.3789525901       15.0718562785       10.5330029840
  H        -4.4528636187       15.2653073670        9.0341249281
  C        -5.8123196875       13.5454115466        8.9583114674
  H         5.6955682187       16.8404211270       15.2592520221
  H         6.1798141738       15.2526860753       15.6100722144
  C         7.6956640587       16.1966253046       14.6162798536
  C        -0.6005632086        7.4485923899       19.2947854444
  S         6.4117030304       14.4514613867       -4.6501333865
  C         5.8779031308       17.4376302869       -4.4404380325
  H        -5.4762498946       13.2408692259        7.9385296835
  H        -5.8335544657       12.5579858521        9.4051624755
  C        -7.1759070835       13.9843764901        8.9478338453
  H         7.9788244910       16.0361214315       13.5874354213
  H         8.2601442723       15.4645831096       15.1967408963
  C         7.9907327806       17.6875681416       14.9494123690
  H        -0.3514164796        6.4232888555       19.2473938850
  C        -1.1675719470        7.7762973563       20.4940083914
  H         6.6239648586       17.0281478943       -5.0947131936
  H         6.2955087187       18.4284245302       -4.1316460875
  C         4.5236496941       17.4239266575       -5.2834607920
  H        -7.7003811149       13.5672477687        8.0660934282
  H        -7.1323348234       15.0504250426        8.8218957664
  C        -7.7954244924       13.5366442326       10.3970161827
  H         9.0099404237       17.9690057329       14.7247354089
  H         7.3710371090       18.2521356492       14.2118235985
  C         7.6025711154       18.1564085098       16.3487985205
  S        -1.7585719516        9.2833555218       21.0368763269
  C        -1.1922583307        6.7143563638       21.5639838931
  H         3.7072710216       17.7943884921       -4.6781074478
  H         4.2737501033       16.4524825933       -5.6639157329
  H         4.6715463504       18.1960077441       -5.9905445113
  H        -7.7353108824       12.4842519540       10.7054209285
  H        -7.3112393150       14.1008707865       11.1991322433
  H        -8.8432687162       13.7455841514       10.4614874538
  H         8.2872048349       18.9756558937       16.6838096110
  H         6.6369997227       18.6234379117       16.4482735763
  H         7.7835643205       17.4106777630       17.1163412209
  C        -1.9787596827        8.5652431782       22.6506666004
  N        -1.7625556304        7.2114566747       22.6489872697
  O        -0.7839557079        5.5114182547       21.4414047764
  S        -2.4632295081        9.5495510192       24.0708131150
  C        -1.9593270105        6.4389703023       23.9145902593
  H        -2.0448032809        5.3679903733       23.5981054601
  H        -2.8961894616        6.6985738264       24.4520275258
  C        -0.7084123831        6.7302758662       24.7524698889
  H         0.2391525049        6.4526203855       24.2647030761
  H        -0.7639543898        6.0943061737       25.5688454709
  H        -0.5939068598        7.7918455010       24.9947652209
