352
i =
  H        -3.2967739269       15.0983269791       16.5886908346
  C        -3.2301811050       13.9867972925       16.6744398719
  H        -4.1857370367       13.5917270592       16.9978514932
  C        -2.2142213411       13.5720156595       17.7146125412
  C        -2.9325157619       13.4416377867       15.2963130505
  C        -2.5829566259       14.0309332738       19.1359793831
  H        -1.9414768959       12.5517169669       17.7793325914
  H        -1.2739862528       14.0519879316       17.4500636703
  H        -2.8649884667       12.3343763248       15.2668303736
  H        -3.5197713165       13.8412496708       14.5251477453
  H        -1.9101429062       13.7981561979       15.0742973276
  C        -2.1439569851       13.1035167767       20.1716519434
  H        -3.5932360316       14.3530638163       19.1660631070
  H        -2.0094347285       14.8992000459       19.5526941357
  C        -2.3858395493       13.4759264504       21.5807817188
  H        -2.5713556567       12.1161058978       20.0187591245
  H        -1.0516980792       13.1936279969       20.0322039546
  C        -1.2477628983       12.8013503967       22.3631518178
  H        -3.3653060446       13.1276216497       21.8817784103
  H        -2.4258094932       14.5873510522       21.7255995198
  C        -0.0227731607       13.7221953644       22.6421566356
  H        -1.6294211641       12.3456163966       23.2984989120
  H        -0.8044378550       11.9917814276       21.9227876779
  C         1.1386008451       13.0353342730       23.4119096448
  H         0.4866702201       14.0191416198       21.7495698131
  H        -0.2809009286       14.7113637508       23.0975235663
  C         1.4661777513       11.6691526689       22.7561483996
  C         0.7463614057       12.3903900715       24.6956927871
  C         2.3567831410       14.0498994344       23.5522086556
  C         1.3163161823       10.6101318255       23.6178555504
  C         1.8790899650       11.1755781826       21.4711461693
  C         0.8357343858       11.0396998111       24.8566136322
  C         0.3428442965       13.0090373395       25.9008183616
  H         2.5032591586       14.5397871110       22.5741535808
  H         2.1393223461       14.8758005509       24.3023186335
  C         3.7051506617       13.3084043532       23.9297892150
  S         1.6188160386        9.0732267371       22.9347232952
  C         1.9830508818        9.8066582502       21.4378654170
  H         2.1635984742       11.8535723085       20.7870341598
  C         0.5148098742       10.4045943549       26.0203576546
  H         0.2964850081       14.1225429235       25.8594575029
  C        -0.0000779604       12.3628346875       27.0247642747
  H         3.9087726674       12.5903146181       23.2107015012
  H         3.5954367685       12.6070246147       24.7653665176
  C         4.9576482792       14.2388886462       24.1580299840
  C         2.5808748952        9.0706915750       20.2723002900
  C         0.1000335212       10.9970144420       27.2354589385
  H         0.5167283144        9.3597265525       26.0967443197
  C        -0.4731445020       12.8651611020       28.2067482433
  H         5.7140642891       13.6390676518       24.5978569242
  H         4.7280577582       15.0639964024       24.8317015290
  C         5.6148181589       14.8531564708       22.8635610390
  C         2.5509711017        7.6991604335       20.0710248873
  C         3.0667611378        9.8957217120       19.0942096017
  C        -0.3447606985       10.3734551186       28.5637520458
  C        -0.7126439778       11.8216855522       29.1190148537
  S        -0.6830494635       14.4059539723       28.8127537670
  H         5.9705425270       15.8742742904       23.1440873398
  H         4.8557179356       14.9953977748       22.0646769451
  C         6.6626390335       13.8812972976       22.2330833966
  N         2.3405597809        6.8197827912       21.1360028086
  C         2.8588451493        7.0790845982       18.8840261816
  C         3.4871810156        9.2224540105       17.8913969506
  H         3.2138173630       10.9876304896       19.2339123439
  C         0.6705044720        9.6423323271       29.3604617763
  C        -1.6532662288        9.5629095510       28.3739365566
  C        -1.0394000608       12.3018965454       30.3574894355
  C        -1.0936521908       13.6738858702       30.3510877614
  H         7.3630090855       14.4702654282       21.6616770091
  H         7.2853268456       13.3695158974       23.0302026591
  C         6.2160646193       12.7103497669       21.2843482736
  S         2.4371354312        5.2932562153       20.4882842223
  N         2.8342505324        5.6871929425       18.9119954578
  C         3.2637133648        7.7927301844       17.7161063785
  H         3.7565463248        9.9186555787       17.0722578856
  H         0.8992966590        8.7054590464       28.8672094770
  H         0.1425656171        9.1500873691       30.1708666972
  C         1.9562135220       10.3291322652       29.8055092018
  H        -1.4482112606        8.8054026917       27.6282558576
  H        -1.8934407690        9.0747154424       29.3679498859
  C        -2.8794968798       10.3259757231       27.9433432088
  H        -1.3062148968       11.5746140183       31.1125408128
  C        -1.4864227929       14.5016124140       31.5833032222
  H         5.5242420674       12.0514338809       21.7941207811
  H         7.0998517018       12.0580571266       21.2752784991
  C         5.6795560842       13.0937741434       19.8688897452
  C         3.4950989300        7.1051160195       16.5184441018
  H         2.2248522517       11.0998110581       29.0582586507
  H         1.9096712947       10.7498233296       30.7861452924
  C         3.1955651598        9.4179967917       30.0580735495
  H        -2.6177878078       10.9228804839       27.0433836728
  H        -3.1184124415       11.0656253190       28.6902035466
  C        -4.1387682367        9.5426354709       27.4615428073
  C        -1.5580371110       15.8917156526       31.7603639067
  C        -1.8109730996       13.8055383172       32.8944751353
  H         5.1065728091       12.2335770846       19.4777784311
  H         4.8426982962       13.7906805533       19.9966839973
  C         6.7014945253       13.5722263178       18.8046975432
  H         3.0230454176        6.1794853030       16.4732452455
  C         3.7960037030        7.4112833764       15.2330371911
  H         3.3312366931        8.7527605661       29.1300185157
  H         2.9137356196        8.7960484290       30.9372294197
  C         4.3709182632       10.2105097081       30.4531549216
  H        -3.8911975341        8.8432424101       26.6479781506
  H        -4.4290278106        8.8152458997       28.2568734120
  C        -5.2680913643       10.5316325636       26.9571730626
  N        -1.3241639706       16.8003066616       30.7126837857
  C        -1.8819124169       16.5606941637       32.9185389564
  C        -2.1977594886       14.4790272789       34.1093537886
  H        -1.8544058695       12.7058522284       32.8133848784
  H         7.2782417539       12.7777096218       18.3293835416
  H         6.1487747109       14.0656248942       18.0224905512
  H         7.4706060342       14.2154251904       19.1948418725
  S         4.0379523624        8.9935052876       14.6346746870
  C         3.7113370471        6.3741050148       14.1866747999
  H         4.5389037868       11.1810721149       29.8860360582
  H         4.2872120572       10.4835583466       31.5111198235
  C         5.6787534154        9.3514661649       30.3394359892
  H        -4.8585192641       11.4531061117       26.6494117327
  H        -5.7989962187       10.8929461125       27.8279803760
  C        -6.1959439087        9.7671341846       26.0439927213
  S        -1.2708976185       18.3241282033       31.2920947326
  N        -1.8653287266       17.9225807659       32.7681588049
  C        -2.2140160749       15.9212372440       34.1539268081
  H        -2.4627819716       13.9627773886       34.9557496074
  C         3.9470418662        8.3053517200       13.0407160367
  N         3.9428204667        6.9322244986       12.9930666636
  O         3.6698952058        5.1959845986       14.4428563749
  H         6.5363901476       10.0191340394       30.1973634424
  H         5.4709483818        8.7169398777       29.4024666298
  C         5.9099018573        8.4119691684       31.4604238879
  H        -5.6223649401        9.2074355804       25.2945086179
  H        -6.8306172465        9.1457522234       26.5461196099
  C        -7.2129433982       10.7126395168       25.3393116639
  C        -2.4947889918       16.6965229830       35.3493693301
  S         4.1277594887        9.2192793806       11.6028944590
  C         3.8849232875        6.1023205842       11.7834476697
  H         6.8916009745        8.3802164836       31.9562584475
  H         5.2492897199        8.6860845802       32.3168184834
  C         5.5619073238        6.9824875085       31.1297685455
  H        -6.7203979586       11.3799029336       24.5857636794
  H        -7.5186907416       11.4808270561       26.0680597369
  C        -8.4862694737       10.0487308219       24.8068592668
  H        -2.1421471114       17.7453271652       35.3208115242
  C        -2.9910110658       16.3503620667       36.5965974620
  H         4.6697515028        6.3513130348       11.1090473830
  H         4.1780061280        5.0976713376       12.0065864553
  C         2.4713531809        6.1782211670       11.1061352660
  H         4.5519656174        7.0206416671       30.6923399682
  H         5.5866259715        6.4876592040       32.0548708074
  C         6.5878154154        6.2414341211       30.2391999416
  H        -8.9332380105       10.6136953126       23.9709680428
  H        -8.2743952490        9.0266560302       24.4381207739
  C        -9.6195424008       10.1047101348       25.7241589358
  S        -3.4646347118       14.8239178893       37.1601485976
  C        -3.0598788356       17.4427676464       37.6153386367
  H         2.2389372468        5.4533031289       10.3060100476
  H         1.7447629437        6.0704676902       11.9099281719
  H         2.3287370604        7.1930904441       10.6113271157
  H         7.6125647047        6.4451041381       30.6216278418
  H         6.5775150926        6.4835373181       29.2129038017
  H         6.5975864846        5.1535154778       30.4026349717
  H        -9.3827705565        9.6261523280       26.6682032421
  H       -10.4231584961        9.4865446523       25.3225306727
  H        -9.9269476209       11.1177142950       25.8783775344
  C        -3.8022263289       15.6291561318       38.7368847683
  N        -3.5557606297       16.9735636417       38.7661679603
  O        -2.7497116007       18.6351597157       37.3906097409
  S        -4.0959769254       14.8036097303       40.2289313719
  C        -3.5747269307       17.7299774281       40.0057514885
  H        -3.7276862039       18.7869710837       39.7126380178
  H        -4.3946460352       17.4434778457       40.6252318898
  C        -2.1149058920       17.6664504688       40.6425443061
  H        -2.1248990632       17.0458659563       41.5239490436
  H        -1.4526465541       17.3025553056       39.8113598917
  H        -1.8494448269       18.6683190664       40.9806891459
  H         7.2070582285       10.8367130551        3.4379591738
  C         7.9554485085       10.0722587416        3.5991689408
  H         7.3567628678        9.1485036796        3.6279716210
  C         8.6385015817       10.2548681476        4.8930402753
  C         8.8445204752       10.0862741347        2.4169277367
  C         7.5984360924       10.6137202323        6.0203123000
  H         9.2117550853        9.3818649587        5.1773846039
  H         9.4011395549       10.9946934203        4.8935145291
  H         9.5166613850       10.9138176879        2.3227438078
  H         8.3538728957       10.0420758833        1.4104212302
  H         9.5498594670        9.2158329489        2.4131667071
  C         7.1515779768        9.3755901293        6.8235199307
  H         8.0522188984       11.2798120914        6.8309702240
  H         6.7633877007       11.2002449181        5.6202566560
  C         6.3014619195        9.7746435619        8.0145298598
  H         7.9840695403        8.6511947810        7.1088096239
  H         6.5169022401        8.8835169653        6.0638580150
  C         5.0880059075       10.6783497110        7.8741782506
  H         6.9419395835       10.2815871333        8.7627894728
  H         6.0070231816        8.7490046777        8.4203082170
  C         3.8386126676        9.9059444208        7.5527836867
  H         4.8405814313       11.1560479562        8.7914545149
  H         5.2336163556       11.5275315741        7.2297305881
  C         2.6230981215       10.8877968024        7.4021450578
  H         3.6705276258        9.1240620678        8.3098642708
  H         3.9992610887        9.4166933893        6.5719678993
  C         2.9285851829       12.1829233256        6.6907909883
  C         2.1948811771       11.5694405899        8.6116063358
  C         1.3660155090       10.1898223164        6.7069263399
  C         2.7886075846       13.3027749406        7.4899814402
  C         3.4857934643       12.5198769882        5.4149606046
  C         2.2717464843       12.9062284357        8.7232330073
  C         1.8238763713       10.9683598437        9.8565476908
  H         1.6081173545       10.0218411705        5.6734884358
  H         1.1759327706        9.2752659472        7.2732255313
  C         0.1856638145       11.0754812610        6.6198354028
  S         3.3730344194       14.7472602648        6.7521126315
  C         3.8223257347       13.8389315056        5.3567873074
  H         3.6209059630       11.7280185511        4.6964017684
  C         1.9978567489       13.5117135035        9.8979232899
  H         1.7860654710        9.9155336519        9.8873886528
  C         1.4313544026       11.6005446996       11.0060459763
  H         0.3370310040       12.1115851406        6.3779595967
  H        -0.3268464422       10.9985396363        7.5831414647
  C        -0.8850617843       10.4351646329        5.6069961704
  C         4.4760544773       14.4733888668        4.1824862914
  C         1.5093221936       12.9091813033       11.0689950897
  H         2.0433877662       14.5753410488        9.8660225843
  C         1.0653930200       11.1860331244       12.2638353956
  H        -1.8022547256       10.9678238167        5.6960974734
  H        -0.9697019317        9.3822798122        5.9820990487
  C        -0.3529747712       10.6351889848        4.2220457945
  C         4.4205832363       15.8782583190        3.9234306332
  C         4.9112727275       13.6050884296        3.1257437027
  C         1.0641913249       13.5497197400       12.3334369742
  C         0.8146201589       12.2795758215       13.0585913052
  S         0.8122292098        9.6991141405       12.9927176960
  H         0.4677810650        9.9260690378        4.0416226493
  H         0.1902772101       11.6561870571        4.0462215087
  C        -1.4224026655       10.4046239578        3.2228714286
  N         4.2361795112       16.9011293613        4.8448154881
  C         4.7373867707       16.3885903460        2.6666883911
  C         5.2015449733       14.1244385406        1.8917681580
  H         5.0971871561       12.5570175083        3.3704857576
  C        -0.2185210506       14.4281920023       12.1203367930
  C         2.1488862659       14.2376511123       13.0908972071
  C         0.3708380606       11.8889518200       14.3789613943
  C         0.3597053428       10.4894342995       14.4757880306
  H        -2.1913697357        9.7143202648        3.5873553901
  H        -2.0418625412       11.3621558567        3.2122561547
  C        -0.8329815579        9.8397076334        1.9387946708
  S         4.2218863133       18.3518855562        4.1186763201
  N         4.5884839813       17.7899249513        2.6096727348
  C         5.1241827491       15.5530686015        1.5809445650
  H         5.5693470416       13.4324671452        1.1930338951
  H         0.0983092747       15.1879024682       11.3961460622
  H        -0.4259907197       14.9530015315       13.0235893455
  C        -1.3533592786       13.5382777857       11.6913566453
  H         2.4522046510       15.0902052993       12.5271734497
  H         1.8325510117       14.5468556706       14.0861275251
  C         3.3852750232       13.3298840661       13.3833307380
  H         0.1577300263       12.6229423483       15.1022004217
  C         0.0682821108        9.6881884554       15.6958945368
  H        -0.1921058121        9.0157080385        2.1326492509
  H        -0.2712335295       10.6498114083        1.4961843252
  C        -1.9194869272        9.3937952360        0.9393112842
  C         5.2380257163       16.1466942757        0.2791436959
  H        -1.0701641307       13.0238739067       10.7267102063
  H        -1.6887660536       12.8325817517       12.4255352549
  C        -2.5296931764       14.4521733992       11.3784150708
  H         3.7167689486       12.9184484355       12.4227300361
  H         3.1722909747       12.4991947606       14.0030786633
  C         4.5447224748       14.1958728748       13.9198703074
  C        -0.0137478375        8.2745479533       15.7776101208
  C        -0.1919455752       10.4335811951       16.9929380837
  H        -2.0075500423        8.2435906599        1.1122275943
  H        -2.9050060685        9.8001812840        1.1936745679
  C        -1.5268312224        9.6702449093       -0.5433459847
  H         5.0062394201       17.2159242517        0.2691063751
  C         5.4348659244       15.6556338112       -0.9579822515
  H        -2.1325642981       15.3714998008       10.9953164690
  H        -3.2379317480       14.5560825813       12.1802964407
  C        -3.4732659738       13.9711150799       10.2697138794
  H         4.8202457569       14.9805957052       13.2220563824
  H         4.2576164394       14.6240160360       14.8361794005
  C         5.7766030022       13.3190178858       14.1871270703
  N         0.2118313056        7.4125416907       14.7380633239
  C        -0.2943149935        7.6182201614       17.0091064367
  C        -0.4339549601        9.7659708242       18.1871638976
  H        -0.0446265890       11.4510812189       17.0718042780
  H        -1.7238022704       10.6942271842       -0.7692421595
  H        -2.1370127292        9.0186514951       -1.2219463347
  H        -0.4816703836        9.5103608857       -0.7529414616
  S         5.6038063553       14.0367072774       -1.4075483595
  C         5.5173961040       16.6450314944       -2.0665351104
  H        -3.9255937519       14.9115290503        9.9635566120
  H        -2.8525659987       13.5511360355        9.5032668795
  C        -4.4964483539       12.9958511398       10.7867236396
  H         5.8784619161       12.6474103973       13.3219314427
  H         5.4458473377       12.6306650657       14.9504319238
  C         6.9380661121       14.1553299385       14.7146178932
  S        -0.0237884717        5.9059826929       15.3032730166
  N        -0.2468610271        6.2789706816       16.8972278499
  C        -0.4503237878        8.2964444349       18.2462506541
  H        -0.4106268415       10.2765822259       19.1159278687
  C         5.8251002565       14.6187432594       -3.0451874077
  N         5.7295798945       16.0028724671       -3.2175994837
  O         5.3215137416       17.8529250259       -1.8383728638
  H        -4.1049763242       12.3164622562       11.5050566831
  H        -5.2216755598       13.5731165168       11.4265070040
  C        -5.2522749036       12.1774568630        9.7404813149
  H         6.5317948963       14.7704659763       15.5084288705
  H         7.6502153449       13.5720652385       15.2672891394
  C         7.6935424313       15.0531756920       13.6974576267
  C        -0.7213704074        7.4867277947       19.4449894389
  S         6.4855602796       13.7292677857       -4.3816934772
  C         5.8645125947       16.7163185599       -4.4773153720
  H        -4.4860338312       11.7222273266        9.0696948655
  H        -5.8577666582       11.3607456872       10.2389490302
  C        -6.2089636533       13.1166206048        8.9672466667
  H         7.4565432029       14.8419915028       12.7120275336
  H         8.7661602282       14.7783507948       13.6880132643
  C         7.4997608548       16.6117573584       13.8890738830
  H        -0.4778347836        6.4076428502       19.3213571888
  C        -1.3152499583        7.7969787592       20.6652164079
  H         6.8018325844       16.4253356810       -4.9771990745
  H         5.8386319788       17.7803490348       -4.3622287664
  C         4.7109316546       16.3471605006       -5.4937078026
  H        -6.4408024428       12.5763421522        8.0540502775
  H        -5.7400340939       13.9530892523        8.6245868810
  C        -7.5896148829       13.3493585462        9.5788929263
  H         7.5422194509       17.0660251437       12.9540701393
  H         6.4405058300       16.6823465276       14.1229382400
  C         8.3325063837       17.1931983134       15.0476474358
  S        -1.9760752589        9.3173793196       21.0632140732
  C        -1.3321196398        6.7896418496       21.7094774286
  H         4.5966395801       17.1357067362       -6.2512685726
  H         3.7761116729       16.3635459043       -5.0436522364
  H         4.8923239352       15.4647834230       -6.1057235682
  H        -7.3732320774       13.9249112889       10.4976706657
  H        -8.1882885590       14.0111115960        9.0482136406
  H        -7.9464568712       12.3148521969        9.8499335885
  H         8.5603475335       16.4722930215       15.7802800872
  H         9.2393154158       17.6542799622       14.6318145171
  H         7.8543508177       18.0300615549       15.5309660806
  C        -2.1941159444        8.6546710020       22.6995190218
  N        -1.9289736064        7.3397001040       22.7926697299
  O        -0.8074742188        5.6920910523       21.6498620340
  S        -2.9832052052        9.4960351782       24.1115677506
  C        -2.1798979267        6.5456504772       23.9804341449
  H        -2.3084220861        5.5561283798       23.5730282926
  H        -3.1870690481        6.8565800258       24.2952917723
  C        -1.0349003461        6.6716031720       24.9840364236
  H        -1.3693584031        6.9796660949       25.9372776965
  H        -0.3319995789        7.3979188829       24.6640190293
  H        -0.5426179101        5.7601035215       25.1083875970
