352
i =
  H        -3.3499346377       15.1374974779       16.2419830437
  C        -3.0673606998       14.1400600631       16.4570498504
  H        -3.9717997405       13.6161587582       16.4937548742
  C        -2.2202022074       13.9471271367       17.7806575567
  C        -2.4485991077       13.5690913533       15.2194271546
  C        -3.0223728218       13.5151848846       19.0489771005
  H        -1.4322125418       13.2622762669       17.5607211656
  H        -1.7395445303       14.9058325324       18.0247021023
  H        -2.3120368713       12.4438417002       15.2674407606
  H        -2.9756891935       13.8178278371       14.2762790245
  H        -1.4701039889       14.0124882244       15.1484259750
  C        -2.0707798008       13.0039877122       20.0797297141
  H        -3.6543758711       12.6299873563       18.7600554730
  H        -3.6830337798       14.2118694249       19.5415562801
  C        -2.4878263414       13.4383523951       21.5508582845
  H        -1.9767396442       11.9272794365       20.0376055260
  H        -1.1024005224       13.4077178670       19.9058317317
  C        -1.4567775925       12.9697333547       22.6562006861
  H        -3.4913818746       13.0130807769       21.7379800966
  H        -2.6245859963       14.5670277772       21.6067466562
  C        -0.1616543728       13.7967776181       22.6039894377
  H        -1.9313927830       13.1566821920       23.6142732157
  H        -1.3170527307       11.8444072357       22.6067586492
  C         1.0185375274       13.0981084522       23.4760607305
  H         0.1712174498       13.9901740182       21.6220193532
  H        -0.2897703024       14.8110705027       22.9940039991
  C         1.2713857633       11.7427381243       22.8495754541
  C         0.5341007616       12.4280446469       24.7602643498
  C         2.2663763671       13.9663652562       23.5916008079
  C         1.2378650865       10.6978694091       23.6838184585
  C         1.7480436739       11.3687483270       21.5844496024
  C         0.6131313706       11.0529946116       24.8750640645
  C         0.1231352908       13.0625080617       25.9082684010
  H         2.4485756113       14.5418880893       22.6825212070
  H         1.9504938142       14.7478019082       24.3508869080
  C         3.5259349721       13.2009824881       24.0678547974
  S         1.7025113900        9.2063870883       22.9919207662
  C         1.9513915306       10.0361756745       21.5156890447
  H         1.7794326541       12.1409886877       20.8261288270
  C         0.1876476713       10.4312405551       26.0289038593
  H         0.1472931877       14.1795300385       25.9243472683
  C        -0.1988120989       12.4355097410       27.0967233215
  H         3.7004362892       12.4356432049       23.2491193135
  H         3.1935148735       12.6111040600       24.9558847801
  C         4.7294040688       14.1519536818       24.3218468090
  C         2.3200340350        9.3966088796       20.2137799159
  C        -0.2895848620       11.0736843032       27.1864302721
  H         0.3388973346        9.4105229993       26.2241713036
  C        -0.5727186656       12.7960112404       28.3620473422
  H         5.4840444424       13.5428906040       24.8526146699
  H         4.3671892434       14.9689751049       24.9319796326
  C         5.4083356553       14.7434233797       23.0976591581
  C         2.3220161430        7.9674967138       20.0165630360
  C         2.7175496773       10.2065200478       19.0410820117
  C        -0.6698507258       10.3668550668       28.4257123512
  C        -0.9751291054       11.7170073814       29.1021332996
  S        -0.7602973268       14.2771562345       29.1964073241
  H         6.0113936160       15.6589660987       23.4061951543
  H         4.6334311255       15.2683472490       22.5233184072
  C         6.1882208977       13.6789592797       22.3113159003
  N         1.9108238428        7.0039741110       20.9228820922
  C         2.6677683766        7.3882847411       18.8138090777
  C         2.9440204372        9.6208253845       17.8390914698
  H         2.9244220778       11.2518440914       19.2270840058
  C         0.4349447879        9.5637705873       29.1722343526
  C        -2.0155406765        9.5756201384       28.3980289441
  C        -1.4084360688       12.0899220908       30.3547508490
  C        -1.3146318679       13.3917338414       30.5381799013
  H         7.1024502652       14.2673474158       22.1161779673
  H         6.4629443199       12.7961120715       22.8588586917
  C         5.4141839161       13.2432908828       21.0004862131
  S         1.9483598596        5.4489355273       20.2710115346
  N         2.4082566007        5.9980133014       18.7719509419
  C         3.0084547835        8.1857525456       17.6881957347
  H         3.3046756801       10.3328572803       17.0606413717
  H         0.7456673449        8.6663011698       28.5658371750
  H        -0.0904740010        9.2253392870       30.0606522351
  C         1.6517500537       10.4556695028       29.4993333039
  H        -1.8097930661        8.7399703149       27.7316850505
  H        -2.1947049553        9.0175636701       29.1993430680
  C        -3.1985282625       10.3457499900       27.9115259445
  H        -1.5853130608       11.2870584206       31.0505696416
  C        -1.6566940492       14.0985342427       31.8394907258
  H         4.3509413761       13.5205579127       21.0688628217
  H         5.3810134513       12.1856340338       20.8776925210
  C         6.1481981485       13.9455137545       19.8763464265
  C         3.4015378403        7.4825224079       16.4714040557
  H         2.1663074086       10.8188097206       28.6038424815
  H         1.2897627768       11.2884027326       30.0572785407
  C         2.5526398934        9.4919018869       30.2783319529
  H        -2.9453525655       10.8698738488       26.9733079315
  H        -3.3798745376       11.1101102527       28.5929045229
  C        -4.4109405839        9.5409290741       27.5399502088
  C        -1.6712863108       15.5151787134       32.0955702617
  C        -2.0452285481       13.2702480657       33.0141845214
  H         6.2752595738       15.0501894788       20.0711161379
  H         7.1617791391       13.5895219616       19.8155949361
  C         5.4663826004       13.6185371338       18.5554426982
  H         3.2962287700        6.4001513848       16.5045150446
  C         3.6535476388        7.9000223052       15.1915545300
  H         2.7132803089        8.6087070710       29.6137209278
  H         2.1634411070        8.9714337461       31.1647417196
  C         3.9024770307       10.0640227321       30.7718638086
  H        -4.1910196416        8.8199127665       26.7470656941
  H        -4.6601509142        8.9955851534       28.4251034118
  C        -5.6315126532       10.4222338673       27.1076705877
  N        -1.3462137959       16.5018362947       31.1280178519
  C        -2.1326844065       16.1121952017       33.2942582568
  C        -2.3356765999       13.8709673728       34.2892222517
  H        -1.9024155707       12.2097056297       32.9050323708
  H         4.6577742297       12.8164372828       18.5588956326
  H         4.8041853355       14.4571912358       18.2395279922
  H         6.0923301575       13.3057173860       17.7060994887
  S         3.8189193413        9.5959235261       14.5802725481
  C         3.8453362339        6.8280600455       14.1533785651
  H         4.3005745822       10.9104810187       30.2231789370
  H         3.7992520739       10.4140033538       31.9027391909
  C         4.9679609582        8.9621925391       30.7416617507
  H        -5.3025645979       11.3131149385       26.6096277432
  H        -6.1305746111       10.7397768805       28.0462707354
  C        -6.5394677230        9.7006230136       26.2318202267
  S        -1.5590501072       17.9839240798       31.8038343509
  N        -1.9840047845       17.4721756180       33.2596992923
  C        -2.3968847491       15.3198993997       34.4428153214
  H        -2.6596523098       13.3100096727       35.0750238148
  C         4.0801821404        8.8392063312       13.0609057720
  N         4.1209766434        7.4886562148       12.9883240932
  O         3.6867150139        5.6296626332       14.3459060330
  H         5.7932101682        9.4631996933       31.2604047085
  H         5.3817975063        8.7415197063       29.7336225518
  C         4.4870773189        7.7207724330       31.4905249509
  H        -5.9962634127        9.0924426545       25.4918796574
  H        -7.1101283956        9.0354048605       26.7240376067
  C        -7.4908406562       10.5839676248       25.5004585615
  C        -2.6306660925       16.0213478059       35.6535690572
  S         4.5136902733        9.6653485140       11.6037914287
  C         3.9900176615        6.8132392789       11.7023385703
  H         4.3544391119        8.0890912079       32.4977113317
  H         3.5218227089        7.3484495563       31.1922646702
  C         5.4174737930        6.5347426104       31.6032917026
  H        -7.0973792937       11.0684177361       24.6013382770
  H        -7.7061114500       11.4579831179       26.1602118220
  C        -8.9086083731        9.9395152072       25.2700206983
  H        -2.3434399084       17.0150474480       35.5883429474
  C        -3.2369198051       15.6745801448       36.8626903914
  H         4.6533948481        7.1173632842       10.9130046287
  H         4.3231657560        5.7478673172       11.8851456704
  C         2.4986263319        6.8006066541       11.2827634030
  H         4.8009370857        5.6246448190       31.6233261588
  H         6.1285998135        6.6708956164       32.4149451784
  C         6.3690469198        6.3682407994       30.4893994660
  H        -9.4276524951       10.3364733537       24.3902382402
  H        -8.8288747881        8.8498377944       25.1592143004
  C        -9.7846731373       10.1215670513       26.4903489632
  S        -3.9040552018       14.0750396296       37.1411841210
  C        -3.5223759986       16.7104648170       37.8822556307
  H         2.3167959304        6.1008195038       10.5191252407
  H         1.8579106404        6.6358812702       12.1846492139
  H         2.2906906339        7.8383162681       10.8035456296
  H         6.8597658702        5.4201923734       30.6494923948
  H         7.1986829605        7.0857025259       30.5707881729
  H         5.9712407403        6.4983972725       29.4727755974
  H        -9.1520651397       10.1303719808       27.4229890371
  H       -10.5369681581        9.3869769866       26.4137263775
  H       -10.3485057277       11.0167345358       26.4544090271
  C        -4.2874939394       14.7160085743       38.7219552128
  N        -4.1541240016       16.0471201467       38.9097174742
  O        -3.0781090405       17.8264462537       37.9173911262
  S        -5.1750219509       13.7407904384       39.9788001732
  C        -4.1774899279       16.8474512612       40.1742470751
  H        -4.5084761843       17.8695679587       39.9076001674
  H        -4.9747199404       16.4387369340       40.8442955961
  C        -2.8633540653       16.6304533707       40.9070812639
  H        -2.8613858412       17.2801495597       41.8329695079
  H        -2.7608648620       15.5795318388       41.1406088926
  H        -2.0507349412       16.9665740997       40.1708110596
  H         6.8182967462       11.0319589483        3.5573424029
  C         7.7290763777       10.3861362060        3.4499769594
  H         7.3826680368        9.3347077681        3.6509740423
  C         8.5916533059       10.8015099974        4.6855113586
  C         8.4353388710       10.3003704907        2.0352314670
  C         7.7309408528       10.8315822222        5.9746977255
  H         9.4620140998       10.1112659744        4.7303540904
  H         8.9669857690       11.7933281313        4.4188397508
  H         9.0537734403       11.1704480782        1.8623385535
  H         7.7596202078       10.2841604343        1.1700290159
  H         9.0547589246        9.4468962118        1.8825322920
  C         7.1173742661        9.4826633865        6.4866686402
  H         8.4574974489       11.1341287137        6.6995822721
  H         7.0494843472       11.7498383778        6.0133398435
  C         6.3654062839        9.6482198537        7.7880611933
  H         7.9476480822        8.8781624269        6.5584469035
  H         6.4001032007        9.1733905499        5.7235109892
  C         5.0800407300       10.5619114428        7.7877531891
  H         7.0123810442       10.0023409381        8.6149718489
  H         6.0963069222        8.6743573350        8.1873308354
  C         3.8594060747        9.8630519706        7.1347430251
  H         4.8470414959       10.6246690861        8.8617865111
  H         5.3129467152       11.5853418735        7.4618966229
  C         2.6095809985       10.7562581783        6.9867927334
  H         3.5971590431        8.9995009337        7.7732488488
  H         4.1989918833        9.4383741400        6.1796975893
  C         3.0474920205       12.0665003332        6.3074731000
  C         2.2687280231       11.4618606918        8.2822780043
  C         1.4840508177       10.0635632462        6.2263295453
  C         2.8309366984       13.1657005220        7.0735827926
  C         3.6033758159       12.3914730510        4.9652666839
  C         2.3403357253       12.8321245738        8.3361510723
  C         1.8894353026       10.8846347046        9.4884837018
  H         1.8221757687        9.7560318414        5.2283428564
  H         1.3341824147        9.1350348166        6.7487306078
  C         0.0802012197       10.8223227736        6.2548133546
  S         3.1569703099       14.6300104896        6.2395674342
  C         3.7038080446       13.7384252961        4.8291687811
  H         3.7156823939       11.5231690608        4.3477843954
  C         2.0685468615       13.5292676998        9.4920906332
  H         1.7771722267        9.8133234217        9.5027116134
  C         1.6557219911       11.5552885877       10.6479794476
  H         0.2715777034       11.9154834703        5.8539607990
  H        -0.1456533949       10.7750089437        7.2908793768
  C        -0.9243437661       10.1711705353        5.3039280326
  C         4.0788543518       14.4004171667        3.5447031247
  C         1.7675470855       12.9149905472       10.7283066616
  H         2.1629647417       14.5910743580        9.4383129166
  C         1.2529633872       11.1771921683       11.9295631487
  H        -1.8218780327       10.7453929327        5.3998198626
  H        -1.1033166247        9.1059114015        5.5030267544
  C        -0.4206826625       10.1177281845        3.8189549124
  C         4.2158796640       15.8269677284        3.3098712313
  C         4.6560899056       13.6031140251        2.4792543690
  C         1.3843749998       13.6325455501       12.0363070066
  C         1.1060928874       12.2532056622       12.7685404617
  S         0.8252781974        9.6984500891       12.6317449557
  H         0.2888022863        9.2598352103        3.7328597457
  H         0.1008099758       11.0669936168        3.4642863491
  C        -1.4816622876        9.8352852956        2.7454749489
  N         3.9462045859       16.8066083536        4.2589366874
  C         4.5512450114       16.4019164310        2.0717011466
  C         5.0312538602       14.1235591872        1.2440625614
  H         4.8143030007       12.5721648565        2.5979573111
  C         0.0824513674       14.4040598556       11.9209748261
  C         2.5424162491       14.4111570669       12.6553048862
  C         0.6637654645       11.8399717756       14.0274111599
  C         0.5421745880       10.4998790762       14.1284522909
  H        -1.8335765226        8.7443996768        2.8601517393
  H        -2.2321720433       10.5456813787        3.1017425191
  C        -1.0243883474       10.3282462252        1.3136643931
  S         4.2616880921       18.2588588196        3.5975235548
  N         4.6666641224       17.7715592485        2.1086014336
  C         4.9501980291       15.5814159734        0.9898536300
  H         5.4650936861       13.4570236840        0.4975396047
  H         0.3593694060       15.3653555271       11.4794331612
  H        -0.2774567154       14.5541039657       12.9948387047
  C        -1.0281450520       13.7104495840       11.2285703990
  H         2.9853360270       15.1904584179       12.0928772171
  H         2.1002949489       15.0067813182       13.4576264499
  C         3.8011111832       13.5650150419       13.0956883310
  H         0.6108368839       12.6526429379       14.8203850840
  C         0.1553851895        9.8096391246       15.4466554548
  H        -0.1453833519        9.8504109963        0.9607186274
  H        -0.7428230120       11.3604518739        1.3194863564
  C        -2.1041965360       10.0046616928        0.3504778791
  C         5.3934870522       16.2296840883       -0.2089216700
  H        -0.6977289199       13.5261845298       10.2255920883
  H        -1.2090459388       12.7723529310       11.6586288928
  C        -2.3115237217       14.5288781676       11.0852275912
  H         4.2510074596       12.9649173903       12.2529699053
  H         3.4488697788       12.8242252071       13.8528113581
  C         4.9648558932       14.4137591795       13.5693481041
  C         0.1678329159        8.4178828237       15.6201170377
  C        -0.1744592951       10.5944872485       16.6757609063
  H        -2.2966519978        8.9335573275        0.5058164228
  H        -2.9797841052       10.5408246084        0.5819973957
  C        -1.5910240004       10.2023784394       -1.1017881010
  H         5.3441294337       17.2742531808       -0.0238607569
  C         5.6707651120       15.8606942315       -1.4793984432
  H        -1.9553151303       15.4733267056       10.6363991337
  H        -2.6882245069       14.7936818813       12.0835026486
  C        -3.3723543275       13.8530928981       10.2044403333
  H         5.4269769760       15.0042905305       12.7821426158
  H         4.4663131098       15.0887678576       14.3003182726
  C         6.0678615504       13.4730075998       14.1271504984
  N         0.4357982296        7.5102266115       14.5878384174
  C        -0.2669561376        7.7902618124       16.7240874701
  C        -0.5517406431        9.9037720851       17.8647069679
  H        -0.2030760811       11.6883275838       16.7257057926
  H        -2.2694812941       10.7029313662       -1.7722333801
  H        -1.5466402044        9.2403139670       -1.5229769541
  H        -0.5228532568       10.3971210614       -1.1434218223
  S         5.9017961384       14.2870660542       -2.0663703073
  C         5.8842623157       16.9725770471       -2.4394230098
  H        -3.4833578615       14.6074339140        9.3734425000
  H        -3.0257174753       12.9594441415        9.6829111390
  C        -4.5700540038       13.6251693441       11.0167831145
  H         6.0698610644       12.4462590706       13.7381732825
  H         5.9627808219       13.3443483334       15.2430387445
  C         7.4672800742       13.9579164034       13.8641844086
  S         0.2243912202        6.0124490842       15.1997308399
  N        -0.3203704514        6.4283925112       16.6290454629
  C        -0.5708615967        8.4319406891       17.9548211629
  H        -0.7761283999       10.5196860991       18.7024224033
  C         6.1473307783       15.0660043536       -3.6369585089
  N         6.0672550442       16.4103446893       -3.6845730301
  O         5.4929032728       18.0861776340       -2.2319225449
  H        -4.3543373935       13.1367910047       11.9565978347
  H        -4.8498993419       14.6855600249       11.2572326898
  C        -5.6495149366       12.8666122682       10.3172883850
  H         8.1516006784       13.4447330870       14.5866759873
  H         7.7309023416       13.7440827262       12.8299024245
  C         7.7175324540       15.4027944941       14.1527533027
  C        -0.8665664238        7.6394396870       19.0835905891
  S         6.2862778593       14.1660700529       -5.1002290137
  C         6.0424907080       17.1485075147       -4.8803481406
  H        -5.1171041269       12.0893810607        9.8019072009
  H        -6.3100514047       12.4654362008       11.0949619201
  C        -6.4555968668       13.6417443688        9.2763147641
  H         7.2141624772       16.0567440556       13.4906500865
  H         8.7113389405       15.4502310333       13.7802622115
  C         7.3851581853       15.8572884409       15.5615979630
  H        -0.6728264821        6.6344982800       18.9516852884
  C        -1.2012457223        7.8389689394       20.3616950639
  H         6.6469629405       16.7685653213       -5.7571916318
  H         6.4674407704       18.1353134387       -4.7050230960
  C         4.5973555196       17.3143778118       -5.2852916958
  H        -6.3229164103       13.2798297035        8.2806596386
  H        -6.0486100724       14.5575353413        9.2983980912
  C        -7.9504214588       13.5877540083        9.6600614353
  H         6.3126475208       16.0190190670       15.5415308481
  H         7.8045297616       15.0849714759       16.2473797638
  C         8.0270633393       17.1598120944       15.9854596139
  S        -1.4837769928        9.3834566009       21.0272907288
  C        -1.3330349617        6.6992898850       21.3205066114
  H         4.6114636931       18.3045333707       -5.8233534620
  H         3.8981324448       17.5464602285       -4.4605732862
  H         4.2268181096       16.5496926366       -5.9587870859
  H        -8.1933672856       12.6556448342       10.2357914993
  H        -8.1929316746       14.4046459047       10.3335686908
  H        -8.5888132580       13.6525545500        8.7481582835
  H         7.4477294733       17.6551583177       16.6927241340
  H         8.9837672228       16.8264763639       16.4660400741
  H         8.2808428954       17.8258311389       15.1707949727
  C        -1.9506155108        8.5507540348       22.5359880720
  N        -1.7894659364        7.2029230693       22.4700232820
  O        -1.2142431879        5.5503434964       20.9723119228
  S        -2.5949240735        9.3865193795       24.0185897868
  C        -2.0583391205        6.3054675753       23.5947854781
  H        -2.2135953446        5.2789363075       23.2531937438
  H        -2.9797805519        6.6847072026       24.0370393588
  C        -0.8232996733        6.3818386642       24.5400854412
  H        -0.3775401140        5.4309016127       24.5809471314
  H        -1.1604012842        6.6398944674       25.5333009915
  H        -0.1661771995        7.2036113595       24.2952759257
