352
i =
  H        -3.7387098584       12.5874451376       16.8785537286
  C        -2.7132665715       12.8494143724       17.1861117590
  H        -2.2012216439       11.9659426850       17.6125557034
  C        -2.9459060164       13.9927213590       18.0760319194
  C        -2.0044125803       13.2844927280       15.8571636819
  C        -3.2734396412       13.4338484994       19.4098585096
  H        -2.0602544377       14.6016749989       18.1005828946
  H        -3.8103914768       14.6088600370       17.7254297412
  H        -2.2026273900       12.5198853214       15.1333012265
  H        -2.4239102389       14.2043812876       15.4738790358
  H        -0.9093022556       13.4439713109       15.9561589920
  C        -2.0352822176       13.1101348413       20.2920965843
  H        -3.8860533693       12.5712411991       19.5098992893
  H        -3.8946028881       14.2220631936       19.9137218870
  C        -2.3848045642       13.0599602126       21.7878689748
  H        -1.6078242766       12.1521256890       19.9436766939
  H        -1.2359805259       13.7473914136       20.1185629669
  C        -1.3607233531       12.3661046776       22.7043681837
  H        -3.3451467918       12.5930345789       21.8802354061
  H        -2.5303109005       14.0702297652       22.1839458151
  C        -0.2050069056       13.3260204257       23.1575619514
  H        -1.8739418413       11.9839694436       23.5637104930
  H        -0.8379971909       11.4912195174       22.3248428196
  C         1.0922917604       12.5968002539       23.7966565655
  H         0.2275372902       13.7610050318       22.2467582519
  H        -0.4839886066       14.1794638997       23.8200398271
  C         1.4791985995       11.2590039407       23.0790767024
  C         0.7040590394       11.9099408599       24.9989473662
  C         2.2069938605       13.6181395988       23.9613691549
  C         1.2020816793       10.1486728186       23.8052468463
  C         1.9238649304       10.9855636342       21.7111940642
  C         0.7506030684       10.5259847338       25.0644757550
  C         0.1118603996       12.4837488474       26.1290483322
  H         2.2364062890       14.2864881576       23.1066044887
  H         1.9737887206       14.2558594878       24.8293358008
  C         3.5777296991       12.9911858788       24.1119842359
  S         1.5251438869        8.6199495671       23.0015352317
  C         2.0009408851        9.5905933860       21.5791497827
  H         2.0960875406       11.7396417864       20.9544702741
  C         0.2757269747        9.8856639185       26.1922394672
  H         0.0395892690       13.5822437319       26.1261853636
  C        -0.2545962143       11.8610373520       27.2466149282
  H         3.8612988818       12.3558248969       23.2505157691
  H         3.4682594359       12.3813205934       25.0036084197
  C         4.7704117649       13.9292260934       24.4830201396
  C         2.4114333667        8.8787907097       20.3619378505
  C        -0.1795848313       10.4807773364       27.3332419413
  H         0.2607170719        8.8152262548       26.1931813822
  C        -0.5735199539       12.2335780723       28.5785507860
  H         5.3824001744       13.2857235676       25.0515215588
  H         4.4511706849       14.6426080380       25.1987382648
  C         5.2132986778       14.6245505929       23.1491128057
  C         2.3632711178        7.4584676589       20.0530542817
  C         2.8329056092        9.6961973779       19.1604245105
  C        -0.5501022750        9.7695873645       28.6304659800
  C        -0.7898019243       11.1607387453       29.3613986025
  S        -0.8181696327       13.7074657383       29.3302099056
  H         5.7605227044       15.5276397075       23.2710231257
  H         4.3530303887       14.8912048686       22.5508696480
  C         6.1427160882       13.7829217649       22.2193571252
  N         1.9672577115        6.5505841527       20.9304358134
  C         2.6414316129        6.9599005463       18.7598690316
  C         3.1860318235        9.1358172286       17.9361795449
  H         2.9597948730       10.7933603664       19.2561836659
  C         0.5987654127        9.0302998657       29.3043153021
  C        -1.7532623382        8.8612899386       28.5337186156
  C        -1.0520404415       11.5302541500       30.6844553833
  C        -1.0360170192       12.8950932047       30.8267313120
  H         7.1236245421       14.1951572447       22.1920100003
  H         6.3269463449       12.8264663035       22.7202043471
  C         5.5567007501       13.7596000957       20.7579953967
  S         1.8637766563        5.0900071668       20.1413563037
  N         2.4973376124        5.6127355084       18.7318847971
  C         3.0356127248        7.7198630837       17.6592499126
  H         3.4885991193        9.8310284986       17.1229073484
  H         0.9270664220        8.2361303966       28.6456521370
  H         0.1864952190        8.5503093098       30.1731758517
  C         1.7908977382        9.9337955873       29.7275220270
  H        -1.4280795238        8.1504834118       27.7700566871
  H        -1.8626532079        8.2676439943       29.4624665192
  C        -2.9053464711        9.6734395431       28.1920849952
  H        -1.3136346130       10.7124484575       31.4054505476
  C        -1.3904988769       13.7433216429       32.0295919258
  H         5.0833573185       14.7329324261       20.4964661539
  H         4.7540807044       12.9973522823       20.8187554676
  C         6.4976543761       13.3467175496       19.6504910209
  C         3.3629006620        7.0377842501       16.4425515283
  H         1.8907236354       10.7855765601       29.1024358800
  H         1.5781344525       10.4079886372       30.6270934134
  C         3.1519050545        9.2579611899       29.6627424225
  H        -2.7182189369       10.3219455158       27.3234339706
  H        -3.1785301153       10.1952420522       29.0713562562
  C        -4.1605560224        8.8887217209       27.6946830836
  C        -1.5490269181       15.1997104969       32.0198333873
  C        -1.8115338909       13.0869012787       33.3275066533
  H         7.2485293841       14.0695375978       19.3274094764
  H         7.1079362475       12.4934040209       20.1032940210
  C         5.7150802110       12.7333230217       18.5222296187
  H         3.2992257635        5.9960323802       16.4504534489
  C         3.6901128835        7.4489885691       15.1685040002
  H         3.3917525530        9.0343852994       28.6400012215
  H         3.1159070537        8.2860981373       30.1200589265
  C         4.2308667010       10.0563317589       30.3800278809
  H        -3.9578407120        8.1837073510       26.8621477590
  H        -4.4998892978        8.3259339696       28.5128115216
  C        -5.0858180924        9.8886761210       26.9216185722
  N        -1.3158905240       16.0429067451       30.9752318224
  C        -1.8274643120       15.9839688506       33.1254895210
  C        -2.1462271161       13.9118947589       34.4411517532
  H        -1.6428744911       12.0376207372       33.5620836491
  H         5.2772294990       13.5205151592       17.9978572543
  H         6.3675732237       12.3162766444       17.8018116810
  H         4.9902438308       11.9350635952       18.8943064467
  S         3.9658027567        9.0417714274       14.6077183244
  C         3.8476818543        6.4650969814       14.0962481954
  H         4.1010301279       11.1395517751       30.1524320897
  H         4.0080928162       10.0902231134       31.4470111031
  C         5.6717033507        9.6416166100       30.0684168423
  H        -4.5477995547       10.2974904870       26.0597194915
  H        -5.2761859109       10.7815436228       27.4773069447
  C        -6.4230138131        9.3354895501       26.4848132140
  S        -1.2955169468       17.5881007947       31.4204164901
  N        -2.0132257946       17.3910240013       32.8604774077
  C        -2.0857850246       15.3659546862       34.3955941313
  H        -2.3107027973       13.3952273916       35.3660365950
  C         4.2809781323        8.3686027878       13.0568388181
  N         4.1801033994        7.0612388442       12.9340880494
  O         3.6124581393        5.2241763782       14.3108079974
  H         6.3209603682       10.3963881263       30.4030204862
  H         5.7687215452        9.6109936359       28.9571200845
  C         6.0703567685        8.4012836136       30.7715650678
  H        -6.3497157652        8.6545860781       25.6445816534
  H        -6.8033601801        8.7177910114       27.2678637881
  C        -7.3323859793       10.3738839345       25.9558446191
  C        -2.3375491128       16.2566667861       35.5229967706
  S         4.6613379843        9.3414933378       11.6174141300
  C         4.2337266419        6.3994178052       11.6774958644
  H         6.9003052667        8.6941647673       31.4731310560
  H         5.3006326499        7.9294063624       31.3909657975
  C         6.7198811335        7.4992736629       29.8050811301
  H        -6.7942932956       10.9773634343       25.1998436584
  H        -7.6588515943       11.1015678862       26.6487200523
  C        -8.6170137514        9.7171786188       25.2399787039
  H        -1.9464796997       17.2748544244       35.4537848657
  C        -2.9182653798       16.0303065138       36.7418602733
  H         5.0984342632        6.7183727290       11.0860074204
  H         4.4074440585        5.3123946607       11.8265892308
  C         2.9272479694        6.5383214861       10.9193998453
  H         7.7711519422        7.7338410467       29.6460096463
  H         6.1755008083        7.5219256128       28.8567450588
  C         6.7381254962        6.1844688400       30.5819406823
  H        -8.9118261456       10.1571128499       24.2662038574
  H        -8.4200955126        8.7564779592       24.9697243194
  C        -9.7681147116        9.8512254775       26.2354913397
  S        -3.7672859472       14.6283456691       37.3595419831
  C        -2.8550295079       17.1620306820       37.7419269452
  H         2.0805156257        6.8266733280       11.5045242089
  H         3.0980577158        7.2201325711       10.0583308854
  H         2.6570881522        5.5910543198       10.4867655298
  H         5.7795794276        5.7823748586       30.7739522757
  H         7.3145526396        6.2647667864       31.4789966319
  H         7.3090783034        5.3703501595       30.0810208460
  H       -10.1690269723       10.8523412836       26.4697217952
  H        -9.4370572805        9.5274678646       27.1991367285
  H       -10.4810059032        9.1064448039       25.9509472950
  C        -4.1649380413       15.5917066678       38.7917805186
  N        -3.5234616698       16.7802475727       38.8418281588
  O        -2.2256241783       18.2002502052       37.6196934207
  S        -5.0603693590       15.0474835982       40.1868927691
  C        -3.4402511500       17.5364025078       40.1177305334
  H        -3.4874705553       18.5642405970       39.8078921035
  H        -4.2753696241       17.3750110892       40.7759267230
  C        -2.2516188128       17.1222225640       40.9627268111
  H        -2.0677848815       17.7862171936       41.7979319632
  H        -2.3822715491       16.0980926979       41.4845117829
  H        -1.3328012548       17.1560602741       40.3457910594
  H         7.5005447870       10.4914585199        3.0760669022
  C         8.3005958062        9.9143141533        3.3743956469
  H         7.8481431203        8.9452203320        3.3315856167
  C         8.6701667348       10.4702416740        4.7659353730
  C         9.4552720799       10.0522533738        2.3611323653
  C         7.6332918401       10.5445293601        5.8314095863
  H         9.5863342309        9.9410213225        5.1451768552
  H         8.8632377854       11.5188179177        4.5928242356
  H        10.1053320232       10.8819191329        2.7562044373
  H         9.1722618953       10.3862978322        1.3236100644
  H        10.0668830336        9.1500073287        2.2804272627
  C         7.4329079836        9.2963358098        6.7188446445
  H         7.8595223522       11.3701193274        6.4667617320
  H         6.6271495003       10.7855595267        5.3540299134
  C         6.7185681222        9.4498771872        8.0514301507
  H         8.4780068318        9.0821195291        6.9269816272
  H         7.0354745464        8.4435637061        6.1713878513
  C         5.4416907670       10.2626363026        8.0675319132
  H         7.3412519269        9.8077970286        8.8325183511
  H         6.6971748508        8.4177791637        8.3896854877
  C         4.1861383540        9.5536787990        7.5815891999
  H         5.2066985514       10.5079696968        9.0743083138
  H         5.6197801580       11.2164771297        7.5612576956
  C         2.8892897913       10.4104989759        7.3673823633
  H         3.9364134083        8.7913325507        8.3197522093
  H         4.3293590409        8.9221396421        6.6622574801
  C         3.2643087704       11.8008537506        6.7475899088
  C         2.4723751127       11.1192039142        8.6576008976
  C         1.8084196817        9.7214530112        6.5218094760
  C         2.9601245937       12.9078832657        7.5382633446
  C         3.6667398477       12.1911522625        5.4536968402
  C         2.4697631104       12.5021366362        8.7604796364
  C         2.0427981808       10.5174642518        9.8028846394
  H         2.2887612566        9.4646701963        5.5665116142
  H         1.3393433326        8.8075498779        6.8642447962
  C         0.6936853559       10.7592487214        6.2352948563
  S         3.4524524491       14.3726580902        6.7798010471
  C         3.7957095651       13.5585633376        5.2950310690
  H         3.8479249797       11.4302457628        4.7117997409
  C         2.0958676085       13.0155478446        9.9767297477
  H         2.0318639960        9.4408034827        9.8473598454
  C         1.6538255362       11.0411056556       10.9760793085
  H         1.0484594669       11.7114880546        5.8184614810
  H         0.1695838674       10.8675438524        7.1603345612
  C        -0.3391496603       10.2075221261        5.2031459630
  C         4.0756257726       14.2558458531        4.0119863287
  C         1.6245935383       12.3735403760       11.0929823373
  H         1.9833406831       14.0550643268       10.1169767556
  C         1.2214102164       10.5542773056       12.1715160754
  H        -1.2151434341       10.8105985201        5.1343672223
  H        -0.6256179081        9.2380857627        5.6384614762
  C         0.1954350440        9.8878461642        3.7315747833
  C         4.1491331399       15.6799821512        3.8138334918
  C         4.4332832240       13.4190813268        2.8303390145
  C         1.1104542254       13.0034598818       12.3413437237
  C         0.8286516726       11.6146641931       12.9681362417
  S         1.0633028114        9.0487174129       12.8609264445
  H         0.9409014880        9.1768985146        3.7113883145
  H         0.7967674914       10.7473349415        3.4336463422
  C        -0.7612072924        9.5850350131        2.6056198643
  N         3.9657330563       16.6631164207        4.9003278468
  C         4.4144986583       16.3129332302        2.6346498660
  C         4.7758912505       14.0870064062        1.6216725578
  H         4.5017407940       12.3514934085        2.8382058111
  C        -0.1585412105       13.8374688471       12.0791784774
  C         2.1616786254       13.8240723312       13.0984699257
  C         0.4718713070       11.1820420458       14.2678913446
  C         0.5370404359        9.8344562523       14.3674847145
  H        -1.1905611155        8.5533800180        2.6920829459
  H        -1.6101188924       10.1910149357        2.7709936808
  C        -0.1720278617        9.9131942679        1.2872440053
  S         4.1605720839       18.1347466414        4.2621094345
  N         4.3026448293       17.6823779332        2.6686328228
  C         4.7733301441       15.6021530386        1.4301590124
  H         5.1861035837       13.4296275203        0.8581654023
  H         0.1583176070       14.6355068761       11.3772687867
  H        -0.5719389291       14.3373235643       12.9882520066
  C        -1.3342697120       13.0814923284       11.5501360465
  H         2.5179751842       14.7372156284       12.5382579007
  H         1.7649137892       14.2952048041       13.9861341897
  C         3.3132877022       12.9935138708       13.5435787224
  H         0.3033469416       11.9957697936       14.9849702392
  C         0.2884465868        9.0916299947       15.6749449423
  H         0.8190548311        9.3895120608        1.2524478528
  H        -0.0357430537       11.0265707752        1.3501703590
  C        -1.0142817397        9.6032246700        0.0706768487
  C         5.0367760725       16.2998563781        0.2270874402
  H        -1.0023349788       12.6076979609       10.6845049511
  H        -1.5429445082       12.1672078985       12.1568357992
  C        -2.5953799158       13.9850846000       11.3401111969
  H         3.7976842671       12.5204676306       12.6810942278
  H         2.9644644134       12.3686170984       14.3258593571
  C         4.2230810683       13.9729299060       14.3711130455
  C         0.1145776872        7.7256684731       15.8797786886
  C         0.0119094161        9.9020934912       16.9159102034
  H        -1.1282566113        8.4645104871        0.0448959174
  H        -1.9625254552       10.0522507948        0.1716846219
  C        -0.3960360602        9.9999916064       -1.2673452493
  H         4.9159023749       17.3820394544        0.2405561868
  C         5.2353188107       15.8299739217       -1.0485956413
  H        -2.2583086789       14.7760063953       10.6639640460
  H        -2.7934242838       14.4075244840       12.3103198762
  C        -3.7069899956       13.0960541756       10.7034495493
  H         4.3857337038       14.8530031121       13.7445475867
  H         3.6799610845       14.4257281454       15.2165571550
  C         5.6055170016       13.3661162300       14.7142678191
  N         0.4176085316        6.7561416704       14.8782408619
  C        -0.3303330405        7.1429943861       17.0195821449
  C        -0.3607080261        9.3183758460       18.1424214452
  H         0.2780793068       10.8835646610       16.9184024257
  H        -0.8537535993        9.4087264382       -2.0517615483
  H         0.6240565802        9.7204061782       -1.3789551194
  H        -0.3669394399       11.0846285209       -1.4409280643
  S         5.4569673527       14.1795378619       -1.5637169215
  C         5.2487369354       16.8438029280       -2.1103346111
  H        -3.3588632607       12.4609909002        9.9340878355
  H        -4.2422457580       12.5743711485       11.4365328791
  C        -4.8140279907       13.9815542956       10.1418122315
  H         6.0634529455       12.7975779218       13.9361512203
  H         5.4431265872       12.5884410522       15.3902813548
  C         6.5697960684       14.3951957494       15.2730603157
  S         0.2384016266        5.2443636106       15.5203983156
  N        -0.3752224464        5.6974897977       16.9764022380
  C        -0.5997357441        7.8379975889       18.2260703511
  H        -0.6560606237        9.9599788331       18.9599564426
  C         5.6795326879       14.7979090088       -3.1909594061
  N         5.6368861953       16.1962085339       -3.2507634214
  O         5.0791745066       18.0902704833       -1.9526505320
  H        -5.3225718480       14.6148346344       10.8455919012
  H        -4.3388033525       14.5093258896        9.3752656665
  C        -5.8395559411       13.0078331776        9.5684063885
  H         6.1898897162       15.0245198555       16.0676261788
  H         7.3219792288       13.8604510355       15.8317600737
  C         7.3445233741       15.3010071032       14.2987520450
  C        -0.9892359912        7.1292815782       19.4097023267
  S         6.2431967392       13.8679455332       -4.5424495638
  C         5.8126114030       16.9309107792       -4.4670285413
  H        -5.3354998901       12.2481498275        8.9622390661
  H        -6.2560170943       12.5228499891       10.3657150539
  C        -7.0363024915       13.7046699549        8.8602809668
  H         6.6587902116       15.5730731214       13.4455882668
  H         8.0318116126       14.6727363014       13.7665222646
  C         7.8747946983       16.5281064232       14.9673827901
  H        -0.6362693290        6.1314395119       19.4147176949
  C        -1.3755981109        7.4845839945       20.7178892551
  H         6.6126787251       16.4413409310       -5.0774925252
  H         6.0528661219       17.9461815678       -4.2985587943
  C         4.4312345161       16.9882009254       -5.1710990096
  H        -7.3565882895       13.0038138200        8.1505937293
  H        -6.6529320631       14.6211810305        8.3945042847
  C        -8.2185092357       13.8856138596        9.8107967341
  H         7.1203609974       17.2135310937       15.3738853241
  H         8.4488510058       16.2113786613       15.8426702172
  C         8.8671880703       17.2140153188       14.0563104144
  S        -1.5410084317        9.0744119692       21.3033297957
  C        -1.4899510623        6.3294375861       21.6308874384
  H         4.4607662901       16.2858138977       -5.9998022222
  H         4.2676268453       17.9684657396       -5.6197027978
  H         3.5235397925       16.9928067716       -4.5793643692
  H        -8.9804049990       14.5286531167        9.4018994239
  H        -8.6676242816       12.8920235961       10.0460785052
  H        -7.9537687601       14.1938196123       10.8047328258
  H         9.3884257082       16.4382909582       13.5151387566
  H         8.3988372226       17.9653028429       13.4286992997
  H         9.5380481703       17.7256213294       14.6468720422
  C        -2.0537674903        8.2346133354       22.7203374982
  N        -2.0693986257        6.8749278172       22.7340498173
  O        -1.0845124853        5.2025371357       21.3608127256
  S        -2.5223067701        9.0548704747       24.1900589395
  C        -2.3204039681        6.0134145361       23.8453390517
  H        -2.6246595609        5.0672567656       23.4513351902
  H        -3.1996181596        6.3962687272       24.4267377315
  C        -1.0677126557        5.7816827417       24.7614885438
  H        -1.0837110301        4.7674689921       25.2404713629
  H        -1.1595075267        6.4322520039       25.5330414275
  H        -0.1478062335        5.9233825418       24.1388090162
