352
i =
  H        -3.3537572241       15.5643736069       16.6251921057
  C        -3.2592711798       14.5162454375       16.5013432547
  H        -4.2080902615       14.0891126941       16.8500479741
  C        -2.2672320480       14.1089685752       17.5252906594
  C        -2.9553885332       13.9493516171       15.1296116696
  C        -3.0053914549       13.9354012964       18.8965999651
  H        -1.9506862952       13.0680141698       17.1868661701
  H        -1.3777759160       14.6860141152       17.6187157790
  H        -3.6465171832       14.2971481617       14.3096725010
  H        -2.0928152325       14.4781778652       14.7664808779
  H        -2.8233643218       12.8636168975       15.0377795970
  C        -1.9725791824       13.7736371625       20.0745983493
  H        -3.7562955377       13.1110881233       18.9603979819
  H        -3.5952169471       14.7713282153       19.0848264308
  C        -2.6237505947       13.5260202645       21.4204887929
  H        -1.2935316352       12.9639711338       19.7776470656
  H        -1.4217166263       14.6580901124       20.0858042394
  C        -1.5691762088       13.0629571137       22.4074758990
  H        -3.4570206644       12.8140498882       21.3912429650
  H        -3.1782668090       14.4203824726       21.8642067990
  C        -0.3271136673       13.9046501517       22.6742985320
  H        -2.0024415473       12.8084027561       23.3797076732
  H        -1.1653394409       12.1434337672       21.9536397997
  C         0.9166069309       13.2339118305       23.2853546405
  H        -0.0385726468       14.3686474038       21.7757085975
  H        -0.5387676999       14.7373019086       23.3669371414
  C         1.2458251059       11.8846432801       22.5791868678
  C         0.5220823477       12.5219758921       24.5312567175
  C         2.2012117433       14.1434005529       23.5412214168
  C         0.8899659783       10.7534196581       23.3829448929
  C         1.7668775967       11.4819629520       21.3441121560
  C         0.4668733500       11.1971097736       24.6029694415
  C         0.1131952770       13.1812461412       25.6838748740
  H         2.4512617251       14.6471928210       22.6010647797
  H         1.9869767201       14.8509653836       24.4021907312
  C         3.4593332596       13.4186740467       23.9665185157
  S         1.2643877408        9.2590817549       22.6776556352
  C         1.8067117740       10.1693190592       21.2431669252
  H         2.0220448777       12.1858752927       20.5691645822
  C         0.0686879151       10.6245818925       25.7894613149
  H         0.2612522626       14.2552246377       25.6232846587
  C        -0.1034556360       12.5258032600       26.9209564725
  H         3.4869384358       12.4242911366       23.5786702242
  H         3.3507935480       13.5163688887       25.0104242938
  C         4.7807546888       14.0964178406       23.6032713129
  C         2.2343519664        9.4721355730       20.0063567217
  C        -0.2191358792       11.1928776078       27.0504038016
  H        -0.0435863432        9.4893768610       25.7297138457
  C        -0.4772140378       12.9774012828       28.2064377978
  H         5.5120812689       13.6896641742       24.2049188104
  H         4.8459607288       15.1725447132       23.8746681281
  C         5.2628906484       13.9896890510       22.1529070880
  C         2.1831936470        8.0196074622       19.7455629694
  C         2.6177548525       10.2789927041       18.8341632005
  C        -0.5489790724       10.5334610827       28.3573565928
  C        -0.7659668432       11.9067567123       28.9926699546
  S        -0.8509147329       14.5029730580       28.8469134888
  H         6.0997266517       14.6019210277       22.0838973828
  H         4.3816650858       14.5472655227       21.6430308118
  C         5.5736691377       12.6865829412       21.5323951477
  N         2.0385612856        6.9913735406       20.7291794073
  C         2.5265113065        7.5321637875       18.4935927626
  C         2.7887264747        9.7356294330       17.5693820326
  H         2.9520411419       11.2796262263       18.9128307415
  C         0.6173316722        9.8365889931       29.0969636411
  C        -1.8288657605        9.6139238840       28.3096397773
  C        -1.2815122849       12.3005525520       30.2232337333
  C        -1.1776705582       13.7014044948       30.3159387829
  H         6.3968665221       12.2427854132       21.9477498932
  H         4.8646823186       11.9561083303       21.8832885439
  C         5.7204256245       12.8034681690       20.0306749303
  S         1.9819203272        5.5958742864       19.9375587414
  N         2.5391610276        6.0854289822       18.4519442051
  C         2.8238830275        8.2945486573       17.3623534049
  H         3.1349099304       10.4298295301       16.8539261983
  H         0.9596214110        9.0050628561       28.4718852123
  H         0.3135191548        9.3283408205       29.9768084732
  C         1.8219327249       10.7419843702       29.4243605404
  H        -1.4761719790        8.7355938029       27.7344257583
  H        -2.1574568595        9.1624744619       29.2331832754
  C        -3.0638638957       10.3404145615       27.7476371036
  H        -1.5195362120       11.6010157249       30.9929680529
  C        -1.3918204747       14.4632434709       31.6037437203
  H         5.1372786725       13.6764071731       19.8149595884
  H         5.1649006880       11.8921537137       19.6200426523
  C         7.1812574270       12.8354871583       19.5692919717
  C         3.1707546780        7.7743481734       16.0722283742
  H         2.2199979934       10.9457297149       28.4324704824
  H         1.5641506938       11.7084056032       29.8835121187
  C         2.9215729662        9.9585285272       30.1945925087
  H        -2.8190833231       10.5540167567       26.7064492074
  H        -3.0954960560       11.2082605019       28.3068050181
  C        -4.3298652639        9.5517840201       27.5974821396
  C        -1.4565730820       15.8963032974       31.7257600790
  C        -1.5927648543       13.7627382496       32.8839853022
  H         7.7236247876       13.6962930000       19.9564360855
  H         7.6806723488       11.9559810229       20.0533465651
  C         7.3806606052       13.0016707368       18.0635460946
  H         2.7574340860        6.7171483442       16.1052716237
  C         3.5285127101        8.2848538678       14.8486053238
  H         3.1144971144        8.9559686377       29.7348489087
  H         2.5268244512        9.6356822758       31.1002627141
  C         4.0410362294       10.8576555982       30.6091710521
  H        -4.3611364990        8.6341815708       26.9403166743
  H        -4.6749034867        9.2044669343       28.5847813872
  C        -5.4012282629       10.5245640738       26.9571561685
  N        -1.2701735505       16.8209794076       30.7252459421
  C        -1.7888265221       16.4701813350       32.8852246000
  C        -2.0117336322       14.3462087729       34.0439240365
  H        -1.5002326015       12.6874001288       32.9707678025
  H         6.6725653775       12.5365599557       17.3890393037
  H         7.5411332539       14.0081286215       17.8087520197
  H         8.2812999859       12.5494022123       17.8102788354
  S         3.9952909729        9.8955609244       14.5227366515
  C         3.5706536050        7.3914372098       13.6879095095
  H         3.9234200615       11.8475542133       30.1919027246
  H         4.0661672742       11.0497541348       31.6835472960
  C         5.2256596804       10.0483367142       30.1542725151
  H        -4.8880797167       11.3887887424       26.4496866242
  H        -5.8574127910       10.9883549873       27.8689875962
  C        -6.4702757176        9.9493537296       26.0412950537
  S        -1.4704094644       18.2626814898       31.3361445091
  N        -1.8501882794       17.8435240587       32.8188200705
  C        -1.9947745799       15.8329314629       34.0951431430
  H        -2.0601081719       13.6597203063       34.9241759735
  C         4.2214022503        9.3369407948       12.9350262310
  N         4.0099480238        8.0211810139       12.6255821730
  O         3.3996073661        6.1065467808       13.8168944010
  H         6.0734603251       10.7556779651       30.0827245962
  H         5.2022859576        9.9269044875       29.0789294246
  C         5.6844202475        8.8182506501       30.9803842158
  H        -5.9926006366        9.5498595978       25.1524459630
  H        -6.8318400342        9.2944141149       26.7621853967
  C        -7.4658295059       10.9198582850       25.5017869090
  C        -2.1935930783       16.6350486355       35.2796905607
  S         4.6490650033       10.4228706398       11.6411900539
  C         4.1867848548        7.3376317171       11.3909582691
  H         6.3945418961        9.2923660546       31.5998648684
  H         4.7781030951        8.4837515372       31.4530521699
  C         6.3948862192        7.7517452469       30.1298306280
  H        -6.9589147258       11.5745453772       24.7868665633
  H        -7.8589167008       11.4370958664       26.4093513435
  C        -8.6569224227       10.4782138707       24.6588951970
  H        -1.8427369942       17.6239361295       35.4029846349
  C        -2.7897885723       16.3929839933       36.4685690907
  H         4.7121892279        7.9806307059       10.6563217227
  H         4.8778239113        6.5085787427       11.5052023040
  C         2.8157861540        6.8014550647       10.8040417271
  H         7.3304308355        8.0378839391       29.6845417558
  H         5.6775547195        7.3209108732       29.4103507379
  C         6.8843622135        6.5994317394       30.9768619871
  H        -8.8848389851       11.2631359767       24.0134384266
  H        -8.4439635752        9.5139345021       24.0630047756
  C        -9.9156505544       10.3021912529       25.5828069751
  S        -3.4339276007       14.8185965949       36.8661870211
  C        -2.8921968803       17.4491672147       37.5715633109
  H         2.1171588732        7.6140235168       10.6124501531
  H         3.0011631480        6.1150690632        9.9196072142
  H         2.2731609724        6.1688142176       11.5236800217
  H         7.2583547640        5.7834322918       30.3587704840
  H         5.9924698286        6.3126016731       31.4808274231
  H         7.5894004711        6.9077067045       31.8000411981
  H        -9.9103261879        9.2947488974       26.0434999787
  H       -10.8213413390       10.4470211937       25.0135769719
  H       -10.2319879009       11.0782343140       26.2069340438
  C        -3.7091225865       15.5367035879       38.5132872692
  N        -3.5569749273       16.9007580075       38.5840311733
  O        -2.5529797775       18.6527822036       37.3461095612
  S        -4.2758772562       14.6894926891       39.9012831582
  C        -3.8473292752       17.5619381492       39.8737135142
  H        -4.1664429890       18.5869772162       39.7364898029
  H        -4.6971574264       17.1465079858       40.3629778812
  C        -2.6526964155       17.5369666982       40.8685900049
  H        -2.8876861342       18.5295431075       41.4314078391
  H        -2.8653043377       16.6659632880       41.4933725479
  H        -1.7234304718       17.6688026370       40.3126381109
  H         9.1216920424       11.7346517984        4.1130903187
  C         8.2514008849       11.1417170175        3.8022444669
  H         7.3152114854       11.7246863732        3.9140241669
  C         8.0871293867       10.0463935536        4.9340741069
  C         8.6136527749       10.5237342665        2.4988494229
  C         7.3805566464       10.4611823318        6.2252563919
  H         7.5036047994        9.2445638482        4.5468715110
  H         9.0613472798        9.4991958547        5.0968291881
  H         9.4031133703        9.7402912971        2.7329638153
  H         9.1806894639       11.3364184400        1.9873022953
  H         7.8157815601       10.1698732129        1.7389259789
  C         6.8254190324        9.2419651874        6.9371041247
  H         7.9633866714       11.0271795647        6.8955409353
  H         6.5275424545       11.0542363592        5.9568373469
  C         6.1427850705        9.5397420090        8.3573096041
  H         7.7025817407        8.6407962420        7.0985295873
  H         6.2803885851        8.6230909832        6.1766332830
  C         4.8371225301       10.3777140502        8.1945332428
  H         6.8563829446       10.1092342760        8.8067989462
  H         5.9528933488        8.6478086746        8.9050430920
  C         3.8754643329       10.0679267707        7.1081590447
  H         4.3983729246       10.0406909445        8.9940742619
  H         5.2262638075       11.4235231191        8.0883474423
  C         2.6959815997       11.0535433355        6.8717168051
  H         3.4472111841        9.1723817030        7.3204304195
  H         4.2745516470        9.9986706207        6.0804584334
  C         3.1741924752       12.3946220586        6.2468212497
  C         2.3486715900       11.7044980263        8.0971361361
  C         1.4365823089       10.4619184994        6.1127811358
  C         2.9475780338       13.4799832261        7.0844182763
  C         3.7702672467       12.7529129202        5.0024077411
  C         2.3619696640       13.0527186108        8.2584535030
  C         1.9000646658       11.0871990477        9.2494073915
  H         1.8479939736       10.1643886503        5.1356864871
  H         1.1382643136        9.5481580541        6.5459056689
  C         0.2783673943       11.4552196562        5.8178191168
  S         3.4689206653       14.9898240118        6.4062627395
  C         3.9421571339       14.0801510947        4.9473039527
  H         4.0570482158       11.9546484602        4.3844010010
  C         1.9466032888       13.6441642546        9.3666064903
  H         1.9387343038       10.0339008006        9.3684387955
  C         1.4936897689       11.6372700110       10.4214503991
  H         0.6236083183       12.4650538141        5.7848599825
  H        -0.2393549618       11.4724460613        6.7915816681
  C        -0.6162843390       10.9177958530        4.6814103755
  C         4.2778665607       14.7641649204        3.6795968459
  C         1.5543207234       12.9513480235       10.5110705032
  H         2.0589727792       14.7452610152        9.4648182918
  C         1.0616377667       11.1623326979       11.6085628914
  H        -1.5776755911       11.4953822568        4.5316771042
  H        -0.8755145711        9.8700138709        4.8849643683
  C         0.0558893665       11.0902270077        3.3223781338
  C         4.1793902568       16.2145858868        3.5235356317
  C         4.5473212000       13.9476383632        2.4573045960
  C         1.1809458211       13.5719332097       11.8318919974
  C         0.9000421692       12.2332494232       12.5141084594
  S         0.9315607748        9.6709243016       12.3766820581
  H         1.1438211106       10.8677461462        3.2872828859
  H        -0.1465291797       12.1961991720        3.0363684983
  C        -0.6833273985       10.3416916382        2.1593868701
  N         3.8068539750       17.1347964580        4.5047242979
  C         4.3457187356       16.8441576851        2.2843942101
  C         4.7102159972       14.5972633832        1.1974082362
  H         4.6620936336       12.8626011343        2.5090826500
  C        -0.0530095224       14.5232046428       11.7485167733
  C         2.3318717768       14.4089151562       12.3520755494
  C         0.5909149333       11.8601786774       13.7964872852
  C         0.5024414951       10.5027517165       13.8460914012
  H        -0.4365097802        9.2892954830        2.3043069851
  H        -1.7731888110       10.4258273142        2.4132405814
  C        -0.3331282204       10.7892796886        0.7636572340
  S         3.8123276598       18.5871133445        3.8699074824
  N         4.2024233943       18.2640226985        2.3166771421
  C         4.6438446124       16.1083652565        1.0858725658
  H         4.9752200333       13.9413476718        0.4826462612
  H         0.1129039181       15.3061750684       11.0370002260
  H        -0.0748666568       14.9820302859       12.7471756316
  C        -1.2482171270       13.6912632986       11.1825492365
  H         2.8152978571       14.9769301836       11.5388819865
  H         1.9811407812       15.1406033945       13.0764973014
  C         3.3562730027       13.5871853548       13.1059926915
  H         0.3700914585       12.7118913343       14.4467214015
  C         0.0812091664        9.7715948488       15.0830166901
  H         0.7087149852       10.5863559876        0.4050460101
  H        -0.4624802393       11.8495092406        0.7589414571
  C        -1.2721617706       10.1786709023       -0.2307483051
  C         4.8834772252       16.7864803563       -0.1224202208
  H        -0.9559340955       13.0555369419       10.3081193993
  H        -1.5409955799       12.8761417154       11.8591217809
  C        -2.4528973945       14.5171877606       10.9719536395
  H         3.7500118439       12.8189950516       12.5782889601
  H         2.8581276023       13.1493439222       13.9750804302
  C         4.5224759657       14.5380942251       13.7148329302
  C         0.0534244680        8.4013549454       15.3560299604
  C        -0.2929821973       10.6358687367       16.2527198353
  H        -0.7739968340        9.2273125569       -0.3862943286
  H        -2.2794167101       10.1201800118        0.1640295857
  C        -1.2775268657       10.9782971991       -1.5543509977
  H         5.0245145457       17.8503244982       -0.0412516271
  C         5.1289903776       16.2079039247       -1.3640547091
  H        -2.3127354034       15.3591879622       10.2950990813
  H        -2.6192566403       15.0423602255       11.8891170294
  C        -3.5950675959       13.6271730065       10.7538505855
  H         4.9466465786       15.1592878183       12.9131251596
  H         4.1015384862       15.3573897320       14.2973349320
  C         5.6009753912       13.7668650435       14.3956095451
  N         0.3127122498        7.4418023823       14.4413818643
  C        -0.3051854649        7.8799595260       16.5622205914
  C        -0.4734504412       10.0616971097       17.5619057565
  H        -0.2026749548       11.6516629851       16.1164427979
  H        -0.3972265949       11.7406749070       -1.5166742042
  H        -2.2693449632       11.5212027021       -1.5203467266
  H        -1.2910742282       10.2993649438       -2.4555603676
  S         5.3427019502       14.5644192388       -1.8873631810
  C         5.4173270887       17.2223949441       -2.4106538304
  H        -3.1915789026       12.7736605068       10.1995368356
  H        -3.8860946153       13.2493225028       11.7153000693
  C        -4.7464899758       14.2655409143       10.0232014308
  H         5.4799156615       12.7042132574       14.3748187817
  H         5.5230894163       13.9142113022       15.4646804772
  C         7.0012746093       14.2183131672       14.1720625007
  S         0.0745756583        5.9929253808       15.0798521786
  N        -0.5006661724        6.5300141010       16.5911443694
  C        -0.5178652728        8.5848915796       17.7476737457
  H        -0.6906934563       10.7300709056       18.3898659592
  C         5.9016096502       15.2476121427       -3.4724348266
  N         5.8749014370       16.6519599829       -3.4985745015
  O         5.3760964351       18.4758902886       -2.2894925236
  H        -5.3183145711       14.8745415925       10.7521312042
  H        -4.3364343648       15.0214167623        9.2505597332
  C        -5.6480308541       13.4032862545        9.2633776634
  H         7.6317069930       13.4946249303       14.7146890664
  H         7.0632689353       14.2485005066       13.1034286564
  C         7.1539653391       15.5667160163       14.8913918069
  C        -0.7357235266        7.9058452685       18.9804387940
  S         6.3962524873       14.3574048539       -4.9228277617
  C         6.1531257482       17.3047926252       -4.7582502094
  H        -5.3235082452       13.5423001531        8.2162066621
  H        -5.5300007353       12.3843154568        9.5636161573
  C        -7.0850577103       13.9138985744        9.2532748972
  H         7.4553607284       15.3697337091       15.9264908845
  H         6.2014771720       16.1666240051       14.9242626715
  C         8.2611357991       16.3814725916       14.2990677395
  H        -0.4822210291        6.8467638822       18.9609437592
  C        -1.3690422207        8.3315805148       20.1158339069
  H         6.9969829325       16.8646396423       -5.0569481730
  H         6.3179677768       18.3768339235       -4.6348209912
  C         4.9491712944       17.2264214859       -5.7124902135
  H        -7.5821179165       13.6101841222        8.3472723594
  H        -6.9038822216       15.0369323042        9.2474675597
  C        -7.8430339255       13.6094859406       10.4791057180
  H         9.1155297122       15.7293402034       14.0722976660
  H         7.8195759210       16.8231292111       13.4240084120
  C         8.4881592590       17.5628881899       15.1473434467
  S        -1.9640773553        9.8739011841       20.4761071170
  C        -1.5645570234        7.3201756638       21.1977486804
  H         4.8318382804       18.1747070603       -6.1977022286
  H         4.0369761343       17.0556422193       -5.2594964994
  H         5.1073022800       16.4646562010       -6.4869611425
  H        -7.0658070704       13.3442651326       11.2748406359
  H        -8.3808959423       14.5242672243       10.6859005676
  H        -8.4876585634       12.7892510480       10.3580303035
  H         9.2118950455       18.2757417223       14.6521061889
  H         7.6071696310       18.1689069723       15.2839691345
  H         8.9119701719       17.4714549866       16.1588020888
  C        -2.4701383147        9.1916711983       22.0273385166
  N        -2.1219060072        7.9263734831       22.2407772890
  O        -1.1164386695        6.1937934206       21.1237459991
  S        -3.1299120603       10.2222413269       23.3406335877
  C        -2.3609180326        7.3120365386       23.5142017981
  H        -3.1725913687        6.5921261255       23.3350987840
  H        -2.9139315454        7.9239168378       24.2396584267
  C        -1.0743068829        6.5797401937       24.0537305344
  H        -0.1311261202        7.1217344128       23.8197383598
  H        -0.9017414332        5.6306531441       23.6473618004
  H        -1.2259250727        6.3088998622       25.1686182639
