352
i =
  H        -3.8125092501       14.5939703152       16.0364481629
  C        -3.6236056197       13.5740801915       16.2676193374
  H        -4.5042602315       13.0867517814       16.5846469167
  C        -2.6226288559       13.4060934347       17.4345929194
  C        -3.1601479898       12.7003039109       15.0508128699
  C        -3.2659122385       13.4590919638       18.8478849536
  H        -2.2770568758       12.3519639537       17.4210894092
  H        -1.7598157480       14.2009512021       17.3362916228
  H        -2.2234894413       13.1900339251       14.6884446036
  H        -2.7066808502       11.7750261259       15.3626369594
  H        -3.9870703747       12.5563238555       14.2752569927
  C        -2.1846188991       13.8025889791       19.9136763417
  H        -3.5834784920       12.4915245415       19.0527540085
  H        -4.0434146097       14.1815462866       18.8970700473
  C        -2.5840028757       13.3307525332       21.3452496307
  H        -1.3198359951       13.2940544708       19.6755584697
  H        -2.0732532966       14.8930619987       19.8818259608
  C        -1.5452069866       12.8454472488       22.3897334834
  H        -3.1827321542       12.4321604117       21.1420449878
  H        -3.2604947199       14.0690767910       21.8347711873
  C        -0.2536321835       13.7372383235       22.5651026179
  H        -1.9984513703       12.7093032951       23.3329272721
  H        -1.2770773342       11.8818281088       22.0171722415
  C         0.9815939355       12.9945613894       23.1362290559
  H         0.0148326262       14.0483386597       21.5691313216
  H        -0.4534396670       14.5865482982       23.1916642054
  C         1.3662963847       11.7185927844       22.4592794461
  C         0.5316092627       12.3206462808       24.3573939971
  C         2.2585004760       13.8613367905       23.3341238359
  C         1.0844186458       10.5883087416       23.2466228280
  C         2.1147374484       11.3920629457       21.3199791394
  C         0.5882356093       10.9588889018       24.4691325384
  C         0.1011965655       12.8896005074       25.5380571340
  H         2.4846414560       14.2531289541       22.3437748823
  H         1.9757937390       14.5384130346       24.1334187732
  C         3.4960590988       13.0716285483       23.8825893424
  S         1.4587062134        9.1531035480       22.5187654702
  C         2.1571183578       10.0282209941       21.1653520335
  H         2.5502475970       12.1238105641       20.6538986142
  C         0.2048969067       10.3744780545       25.6919493507
  H         0.1597225461       13.9835178921       25.5024036063
  C        -0.2752073316       12.2679673353       26.7592188153
  H         3.8587860018       12.3157876019       23.2209204026
  H         3.2302505659       12.4577577688       24.7577745527
  C         4.5624074182       14.0315527901       24.3714114037
  C         2.6083988796        9.2865344916       19.9993546366
  C        -0.2321538277       10.9809865486       26.8482832293
  H         0.4426142280        9.2990047040       25.7501079902
  C        -0.6838922873       12.6574434881       28.0447824669
  H         5.1101595162       13.6883884773       25.2101036010
  H         3.9968834418       14.8264249470       24.7659843797
  C         5.4599399448       14.6505520961       23.3231231841
  C         2.3797517819        7.9204146400       19.7102549156
  C         2.9479089410       10.1427969994       18.8317672996
  C        -0.5282937188       10.2648028272       28.1176373308
  C        -0.7787633613       11.5726979545       28.8555793937
  S        -0.9654343388       14.1853939642       28.7557853165
  H         6.1704850483       15.3411362652       23.7896496860
  H         4.8012588158       15.3064530221       22.7590824403
  C         6.1264240134       13.5594139534       22.4137526966
  N         1.9548013525        7.0562502420       20.6533868641
  C         2.6631724468        7.3665974705       18.4533727334
  C         3.0507395102        9.6136024218       17.5860304079
  H         3.0861922218       11.2741821179       18.9432288149
  C         0.7031389786        9.5963239167       28.8045169921
  C        -1.7759527934        9.5202124068       27.9274333843
  C        -1.1084973672       11.9351088256       30.2092348888
  C        -1.1922024748       13.3101962030       30.2751774416
  H         7.1842227105       14.0333526876       22.2362090126
  H         6.2554289132       12.5946358309       22.7398303261
  C         5.4920691616       13.4643201707       21.0435811767
  S         1.7585760629        5.6596458602       19.9585473525
  N         2.4504834457        5.9887556006       18.4899316390
  C         3.0370806777        8.1613060876       17.3332172749
  H         3.3138157775       10.2842621770       16.8113589083
  H         1.0863261666        8.7041939474       28.2683919123
  H         0.3835239586        9.0363285897       29.6801664234
  C         1.8114552105       10.4893343083       29.3793792029
  H        -1.7280839124        8.9170146437       27.0144637293
  H        -2.0777396473        8.9010541542       28.7278777577
  C        -3.0940707901       10.2497554620       27.6875472520
  H        -1.2323000329       11.1512935961       30.9200794426
  C        -1.4573070592       14.1178516387       31.4839519280
  H         5.4904304743       14.4921646084       20.5902395192
  H         4.4792208789       13.0989059217       21.0831533299
  C         6.2344432082       12.5700442918       20.0599573692
  C         3.2086472966        7.5765997747       16.0089309958
  H         2.1904897740       11.1120388701       28.6044189491
  H         1.4389529674       11.2113414815       30.0789937402
  C         2.8211744891        9.6096317905       30.1632730048
  H        -2.8576930178       10.8701840299       26.8478467853
  H        -3.3753811181       11.0226853207       28.4264728787
  C        -4.2813758938        9.3434876219       27.4728381051
  C        -1.6197619341       15.5597101122       31.6190951909
  C        -1.4634827308       13.4123383598       32.8025122404
  H         7.1561991617       12.1930662703       20.5476268966
  H         5.6059371176       11.7174294238       19.8679618693
  C         6.4999060448       13.1879347525       18.7440004251
  H         2.9346567467        6.5477488023       16.0167602735
  C         3.4803603201        7.9462428770       14.7714627473
  H         3.4571288651        9.0706650873       29.4808361593
  H         2.2610013166        8.7934807904       30.7656731307
  C         3.7785486051       10.3148005617       31.0431828387
  H        -4.1596035201        8.7443351335       26.5576874483
  H        -4.5250723088        8.7259960992       28.2998962697
  C        -5.4101548841       10.3153200467       27.1208347616
  N        -1.2750724690       16.5124737065       30.6093435530
  C        -1.8895159134       16.2234266783       32.8262229427
  C        -1.8273432907       14.0135962957       34.0271235834
  H        -1.1849504290       12.3769460591       32.7833041658
  H         5.5390081567       13.3539299493       18.1830902597
  H         6.8753572053       14.1923261973       18.8443261719
  H         7.1694615346       12.5607989180       18.1343516664
  S         3.8310923695        9.5164271678       14.2137294378
  C         3.5084054379        6.9202193862       13.6963593316
  H         3.6979116778       11.3865781225       30.7869684914
  H         3.5294771077       10.1693381870       32.0770278907
  C         5.3020163925        9.9951049785       30.8411118978
  H        -5.0926888857       10.9502731794       26.3203633812
  H        -5.7773863969       10.8242596008       28.0245792221
  C        -6.5706096425        9.5755383699       26.4890895587
  S        -1.3537409488       17.9853145269       31.2130667307
  N        -1.8789225150       17.5957663745       32.7130487540
  C        -2.1450921008       15.4926808757       34.0354863989
  H        -1.7856591154       13.4810730108       34.9717476810
  C         4.2079726305        8.7694845219       12.6173838634
  N         4.0029095084        7.4203033772       12.5618688435
  O         3.2912130810        5.7304048269       13.9875500835
  H         5.9110586869       10.7796520281       31.2759561794
  H         5.5949090621        9.9501860568       29.7553590536
  C         5.6924487171        8.6168830991       31.3551831520
  H        -6.3005131023        8.8083636818       25.7883491603
  H        -7.1335233187        9.0741738757       27.2243132426
  C        -7.5825784602       10.6103513883       26.0131450584
  C        -2.3267925632       16.1979677002       35.2551319876
  S         4.7260294834        9.5272510953       11.1387720853
  C         3.9796190618        6.6079500970       11.3773945389
  H         6.3116444710        8.7390966152       32.2544259756
  H         4.8488548055        8.0892631230       31.6599982396
  C         6.6105908867        7.7618397064       30.4500731463
  H        -7.1132545055       11.3696632672       25.4095022679
  H        -7.9055630263       11.1477630983       26.9463266587
  C        -8.7494395305        9.9245209131       25.2243596267
  H        -2.0377306926       17.2596655382       35.1369139987
  C        -2.7431384182       15.8987587478       36.5332992479
  H         4.5094392314        7.0832041315       10.4472514972
  H         4.4799775022        5.6537707483       11.5597428835
  C         2.5338918032        6.3488910739       10.8490555238
  H         6.8885947411        6.8575992498       31.0014907540
  H         7.5628534163        8.3240267567       30.1583490303
  C         5.8004412674        7.3406294323       29.2350777638
  H        -9.1592894634       10.3878245960       24.3372704377
  H        -8.3100790658        8.9953049051       24.9297888646
  C        -9.8062010133        9.7752857805       26.2121942242
  S        -3.1931943186       14.3507791546       37.0445415346
  C        -3.0074249273       17.0601523135       37.4340277583
  H         2.4682057180        5.4965351901       10.2244118571
  H         1.8216124263        6.1380116413       11.6102156886
  H         2.1984364955        7.1806240412       10.2454669252
  H         6.2395268782        6.5875977570       28.5538802747
  H         5.5139467459        8.2221353472       28.6412065551
  H         4.8251122842        6.9225847011       29.4952549869
  H       -10.1626837954       10.7420295208       26.5698109300
  H        -9.5090568711        9.0867724528       27.0024299930
  H       -10.6428462943        9.2963268196       25.6964110977
  C        -3.4677887293       15.1431888284       38.6087825745
  N        -3.4046149518       16.5197211926       38.5651025491
  O        -2.9029703208       18.2299182997       37.1497112982
  S        -4.1050270844       14.2091970348       39.9402473766
  C        -3.8551549973       17.3751617320       39.6823988762
  H        -4.3416698418       18.2996079515       39.3516163091
  H        -4.6183129614       16.8368183622       40.2884770513
  C        -2.5901763171       17.6606616445       40.4747375472
  H        -1.6551095301       17.9464808825       39.9775246671
  H        -2.7875685941       18.5395410489       41.0730253720
  H        -2.5528134262       16.8166975819       41.0503661150
  H         7.8176285895       11.4890401473        3.1559894960
  C         8.2785732565       10.5329324385        3.3343768751
  H         7.5114006904        9.7664334661        3.2423855657
  C         8.9430136574       10.4592164390        4.7162304103
  C         9.2267313436       10.1484743628        2.2469513322
  C         8.0256724739       10.7296921415        5.9039909232
  H         9.4173867540        9.4906650488        4.8049651964
  H         9.7789427619       11.1803802293        4.7396217365
  H         9.9230967281       10.9325853838        1.8594520481
  H         8.6709730710        9.8178097540        1.3840723470
  H         9.7697024266        9.2988963741        2.5705725320
  C         7.2233402024        9.4628861704        6.2822460120
  H         8.5349820127       11.1765900771        6.7483405054
  H         7.2887972716       11.4988750121        5.7262618332
  C         6.5449339108        9.5895411177        7.6022870867
  H         8.0513045779        8.7480824864        6.3536510464
  H         6.5694982717        9.2060288679        5.4681657956
  C         5.2776521938       10.5213942654        7.5201737302
  H         7.1593997076       10.1229735976        8.3246298508
  H         6.2248879338        8.6747813730        8.0030146284
  C         4.0016810231        9.8905789195        6.9955683446
  H         5.0616921068       10.9262758758        8.4830920723
  H         5.5498247588       11.3502993000        6.8690414308
  C         2.7451781961       10.8116796333        6.8718917164
  H         3.6112599204        9.1728926421        7.6565651700
  H         4.2133726760        9.4004058752        6.0552750467
  C         3.1284990220       12.1533787101        6.3400513035
  C         2.3136559067       11.4189223083        8.1477312267
  C         1.5270532338       10.1007857155        6.0559266568
  C         2.8514464199       13.1694982343        7.1673567468
  C         3.6075072211       12.5995387781        5.1082662445
  C         2.2862099833       12.7274132409        8.3536580248
  C         1.7908052430       10.7526298266        9.2578472880
  H         1.8649825784        9.8620951055        5.0756017027
  H         1.2576741130        9.2147683985        6.6246104697
  C         0.2608825621       11.0715795521        6.0714413356
  S         3.3227179190       14.7013121518        6.4639301244
  C         3.8118204594       13.9281001273        5.0569946728
  H         3.6069208613       11.8482139410        4.3066380097
  C         1.7886400172       13.2981587488        9.4705980663
  H         1.5911300578        9.6735079063        9.0003560327
  C         1.4105303452       11.2667173798       10.4594189562
  H         0.5726461203       12.1398679065        5.8493530775
  H        -0.1958827745       11.1809616926        7.0545225822
  C        -0.8515432486       10.6022337814        5.0741034507
  C         4.1498958943       14.6904652121        3.7852180030
  C         1.3220548476       12.6219066922       10.5846012534
  H         1.7787945734       14.3678056770        9.5201651162
  C         0.9128991437       10.9021294834       11.6745892523
  H        -1.8950347104       11.0096183961        5.3090664590
  H        -0.8943094879        9.4958274233        5.0521329678
  C        -0.5972357425       10.9823627968        3.6734083221
  C         4.1450030174       16.0927807048        3.5445028911
  C         4.5740765102       13.9063813774        2.5830910962
  C         0.8523562284       13.3254085954       11.7695881059
  C         0.5669123844       11.9905004371       12.4437345924
  S         0.5833866783        9.3903955658       12.4571109736
  H         0.2919944942       11.6050353903        3.6963169560
  H        -1.4633859693       11.4980518127        3.3438911233
  C        -0.3394181185        9.6805758424        2.9076050942
  N         3.6254140244       16.9804283283        4.4384662365
  C         4.5042883045       16.6686696058        2.3529214556
  C         4.7482578559       14.4537618075        1.3570134675
  H         4.6903172455       12.8112070739        2.6547761964
  C        -0.4773568656       14.0248082493       11.5171794088
  C         1.8632435353       14.2063023360       12.4718477828
  C         0.2873344394       11.6395979959       13.7854875092
  C         0.2883399284       10.3073523480       13.9054121120
  H         0.2447136723        8.9786440929        3.4769369054
  H        -1.3042235997        9.2312495738        2.6375127198
  C         0.3058269612        9.9564537052        1.5433323061
  S         3.7069668528       18.4330328240        3.7917678628
  N         4.4050328867       18.0627527801        2.3963835840
  C         4.8361996067       15.9310638653        1.1732911828
  H         4.9750202007       13.8402775756        0.4982611784
  H        -0.2735364220       14.8213820650       10.8492675937
  H        -0.7537103636       14.5865674371       12.4352271875
  C        -1.5422534562       13.0666164401       11.0240765779
  H         2.2128091959       14.9211677382       11.7865314754
  H         1.4430051633       14.7716212351       13.2951569821
  C         2.9887839557       13.4691295466       13.0828691714
  H         0.0394697549       12.4657444068       14.4533831210
  C        -0.0533687688        9.6144810149       15.1520374544
  H         0.9354869245        9.1998984850        1.1502852565
  H         0.9696698476       10.8351885856        1.5698634349
  C        -0.8217690287       10.1698022407        0.5439344700
  C         5.0575569298       16.6613565826       -0.0200394791
  H        -1.2300626489       12.5813199457       10.1276796498
  H        -1.8729125279       12.3241105176       11.7018296392
  C        -2.7612196043       13.7915130220       10.5941855398
  H         3.4196572178       12.7533854332       12.3715525537
  H         2.6212753882       12.9412028780       13.9673356856
  C         4.0134639869       14.5276364490       13.4943839474
  C        -0.0509001471        8.1751606048       15.3118310194
  C        -0.1742719155       10.4596941948       16.3924235893
  H        -1.5486003492        9.3456428206        0.4153574796
  H        -1.4066228187       10.9951087418        0.9057734562
  C        -0.2738145503       10.3437331882       -0.8766514664
  H         4.9054278936       17.7299957868        0.0030116198
  C         5.4988385319       16.2581608724       -1.2416149292
  H        -2.9930487956       13.6166927056        9.5566998383
  H        -2.6590197729       14.8726951124       10.5914192640
  C        -3.9991991927       13.3617037436       11.4081552735
  H         4.3706464100       15.2097353139       12.7211646589
  H         3.6051069433       15.3129625487       14.1306407353
  C         5.1279195357       13.8049486431       14.1270934293
  N         0.1792124580        7.1440536587       14.3693709766
  C        -0.2941256522        7.6010809922       16.5620654333
  C        -0.4164563284        9.8229153948       17.5926225744
  H        -0.0989827748       11.5519376717       16.4447922395
  H         0.5822988705        9.7444016512       -1.0739628512
  H        -0.0677784690       11.3456023619       -1.0329868380
  H        -0.9601484838       10.1586519242       -1.6336742495
  S         5.8516227682       14.6206549654       -1.6681052168
  C         5.6139297174       17.2031153810       -2.2998454414
  H        -4.1721348370       12.3098594909       11.3278217028
  H        -3.8980599142       13.6460079996       12.4373379837
  C        -5.2649600307       13.9984345407       10.8066434640
  H         5.4586848016       13.1683434602       13.2956402847
  H         4.6648002576       13.1277675587       14.9604075038
  C         6.3412922395       14.5890922470       14.6258694826
  S        -0.0932718089        5.6897583298       15.0608673949
  N        -0.2919557394        6.2095898671       16.5777719588
  C        -0.5810611923        8.3772118463       17.6862684250
  H        -0.5773695935       10.4361117580       18.4787822332
  C         5.9764979733       15.1875264364       -3.3530589670
  N         5.8285053692       16.5610692531       -3.4387024634
  O         5.5437226595       18.3701535956       -2.1235246409
  H        -5.9306594879       14.0865358759       11.6228002313
  H        -5.1595262383       14.9897536661       10.3418725776
  C        -5.8303822578       13.1702620043        9.6845466528
  H         5.9583396126       15.0697608510       15.4662412025
  H         6.9431781366       13.7275588589       14.8327481977
  C         7.1000824524       15.4028806932       13.5928657626
  C        -0.9105001493        7.6875070519       18.8538989681
  S         6.3796051928       14.2340410894       -4.7526447078
  C         5.8149362742       17.2843159757       -4.7316226440
  H        -5.1785361422       13.0376401264        8.7739933851
  H        -6.0887414821       12.1190285959        9.8597195619
  C        -7.1002720602       13.7385528723        9.0873061407
  H         6.6272149465       16.2790224598       13.1843096943
  H         7.3411533034       14.7326828550       12.8183446246
  C         8.3958023545       15.9585809970       14.1099899079
  H        -0.7087900282        6.6553502249       18.9137691580
  C        -1.4345294251        8.1189509711       20.0306518788
  H         6.5815776130       16.9804530062       -5.4006225945
  H         6.1434414336       18.3099251714       -4.6339545141
  C         4.4636420139       17.3854338666       -5.3321814450
  H        -7.4658403572       13.0323602630        8.4136634299
  H        -6.8502039187       14.5681915535        8.4091935756
  C        -8.1954329310       13.9492792519       10.0847427930
  H         8.5745841722       15.4881586962       15.0477659156
  H         9.2119829808       15.6257508516       13.4312692478
  C         8.3110453201       17.5074762911       14.1788802744
  S        -2.1966557957        9.6616470807       20.4128315828
  C        -1.6490998106        7.0381089320       21.0028914303
  H         3.6361417776       17.1461438346       -4.7235128733
  H         4.3516318967       16.7994351693       -6.2624904150
  H         4.2259491160       18.4126540568       -5.5935163714
  H        -8.0173158695       14.6878686114       10.8416197615
  H        -9.0050724060       14.3630586632        9.4604837453
  H        -8.6001612660       13.0995007584       10.6185657759
  H         7.3359190434       17.8867660419       14.5078278307
  H         9.0884313731       17.7787955581       14.8581816661
  H         8.6339365897       17.9068165947       13.2221965260
  C        -2.5398946874        8.9362697683       21.9679368614
  N        -2.3469134401        7.6152891894       22.0457302198
  O        -1.3465800735        5.8046368820       20.9589197494
  S        -2.9195395915        9.9064568960       23.4090286173
  C        -2.5988221194        6.9461517970       23.3466326850
  H        -2.9179800287        5.9382473203       23.1125222196
  H        -3.3544836963        7.4066579854       23.9498179123
  C        -1.3705771044        6.9096041676       24.2462012950
  H        -0.4453966332        7.4547995263       24.0124247665
  H        -1.1031798449        5.8296930102       24.3917713633
  H        -1.5973593423        7.1214807900       25.3241240190
