352
i =
  H        -0.9438174857       13.9126232620       15.7815154996
  C        -1.7903555599       14.0074942741       16.4438207320
  H        -1.9299420962       15.0414850037       16.5370626507
  C        -1.3877707632       13.4288392241       17.8382523580
  C        -2.8697078061       13.2229140791       15.7196846489
  C        -2.4146638789       13.6878163327       19.0553693663
  H        -1.2593199209       12.3373768096       17.7359150445
  H        -0.4689765958       13.8855313835       18.0772780618
  H        -3.8537708194       13.5964798071       15.9551166992
  H        -2.8260346380       13.5414256127       14.6479108925
  H        -2.8377906345       12.1641955889       15.8427360560
  C        -2.1966469401       12.7198592801       20.2149444792
  H        -3.4651673003       13.6138830052       18.7117652286
  H        -2.2162267644       14.7205650888       19.3377127403
  C        -2.4563106941       13.2058615941       21.6275011117
  H        -2.7249466629       11.8091959727       20.0799988420
  H        -1.1558609420       12.4054090510       20.2924378956
  C        -1.5683281109       12.5604087810       22.7103483557
  H        -3.4796671705       12.9489972217       21.8024669637
  H        -2.4363425470       14.2901623822       21.7294420516
  C        -0.3149037943       13.4898780653       22.7535621155
  H        -2.0544228247       12.4956196319       23.6829623476
  H        -1.2829534861       11.5481034001       22.5001303608
  C         1.0147513138       12.8845307165       23.2903838167
  H        -0.1411261446       13.9565806653       21.8117697086
  H        -0.6257843630       14.3954191968       23.2390305871
  C         1.3971833713       11.5702765351       22.5887647305
  C         0.7299102339       12.2047202006       24.5700157792
  C         2.2722000418       13.7871531028       23.2802760843
  C         1.3172487228       10.4844216973       23.4539629986
  C         1.9625026092       11.2042074384       21.3583164805
  C         0.8959791281       10.8692515639       24.7029188736
  C         0.2429863540       12.7676782329       25.7811230266
  H         2.4676142139       14.0090487927       22.2556973010
  H         1.9665072027       14.7246401851       23.8270977709
  C         3.4954204226       13.1378522607       23.9566191357
  S         1.7607582147        8.9917345835       22.8092267843
  C         2.1580826162        9.8208917769       21.2798713596
  H         2.1702192623       12.0081157621       20.7006047806
  C         0.6459353759       10.2824328559       25.9370992492
  H        -0.0699843250       13.8012123396       25.7213890731
  C         0.0094559766       12.1687763296       27.0338712202
  H         3.9014532446       12.4185222212       23.2291216163
  H         3.2424428063       12.5728048244       24.8397039868
  C         4.6698392820       14.0236797091       24.4468068492
  C         2.6780307101        9.0702509197       20.1009460098
  C         0.1623313854       10.8640926213       27.1000120543
  H         0.8256537151        9.2023906829       26.0309172793
  C        -0.4270598700       12.6157621840       28.2467007317
  H         5.5016472060       13.6375958174       25.0005640725
  H         4.2224043468       14.6944965168       25.1673903234
  C         5.2111767647       14.7817214692       23.2753873334
  C         2.5108974434        7.6344572962       19.8566514221
  C         3.2137807700        9.8649643627       18.9820247243
  C        -0.2900352755       10.2171648330       28.4145273635
  C        -0.5645660574       11.5294994298       29.1141030249
  S        -0.9236605660       14.1778222961       28.8895704332
  H         5.7060429603       15.7077895529       23.5409385406
  H         4.4132966653       15.1090686956       22.6241649544
  C         6.2542004531       14.0481916345       22.3941468908
  N         2.0410647585        6.6736227315       20.7973834601
  C         2.7825973168        7.1307523689       18.5469402880
  C         3.3934603885        9.3404803172       17.7288690587
  H         3.2854042128       10.8772158187       19.0561371187
  C         0.9205830031        9.4126141606       29.0350214196
  C        -1.5882361667        9.4815247934       28.1542662301
  C        -0.9028118554       12.0263089860       30.4344400947
  C        -1.0672270022       13.3658649385       30.5096567258
  H         7.1037676922       14.6273451128       22.3707090109
  H         6.5832778801       13.0327509905       22.7048740715
  C         5.6533645195       13.9669994312       20.9414608878
  S         2.2279978553        5.2305277520       20.1164740716
  N         2.6194618517        5.7555048731       18.5604660426
  C         3.0844370451        7.9150011188       17.4260998127
  H         3.6691202507        9.9846215987       16.9322407009
  H         1.3697914558        8.7607896620       28.3047730715
  H         0.5264418061        8.8284764219       29.8510565027
  C         1.9639391596       10.2693611664       29.6888502317
  H        -1.4915356376        8.7542102826       27.3840883705
  H        -1.8758479572        8.9764412555       29.0887536160
  C        -2.7820263093       10.3873555792       27.8212184568
  H        -0.9175769180       11.3050863431       31.3322423662
  C        -1.3292423142       14.1640935696       31.7887946474
  H         5.5069374007       14.9276464533       20.4839325170
  H         4.7200304026       13.4851674364       21.0528426930
  C         6.4878419629       13.0401155045       19.9801675708
  C         3.3504035357        7.2068529439       16.2313594696
  H         2.5165453815       10.8041647185       28.9508075889
  H         1.5693414528       11.0483433908       30.3106742310
  C         2.8965521044        9.4241301902       30.5365624747
  H        -2.6361967285       11.0501684315       26.9830327281
  H        -3.0197750828       11.1068571022       28.5699978909
  C        -4.0762709021        9.5532601228       27.6450148572
  C        -1.3690394337       15.5980511050       31.9053401946
  C        -1.6699085027       13.3943944087       33.0301904318
  H         6.6089426085       11.9960245766       20.3335865945
  H         5.9723392348       12.8427751054       19.0471742873
  C         7.9172521683       13.4864963612       19.6029296508
  H         3.5430948081        6.1847219511       16.4757478056
  C         3.6205296562        7.6587696698       14.9518039804
  H         3.0810576663        8.4815620549       29.8856387689
  H         2.3488576805        9.2494083018       31.4986590012
  C         4.2661181148       10.0447035083       30.8937255609
  H        -4.0295858667        8.6851878360       26.9416790356
  H        -4.3894736385        9.0723279173       28.6455719533
  C        -5.2690291081       10.2701616638       27.0856146447
  N        -1.2722199859       16.5321609703       30.8906390421
  C        -1.7502372616       16.2122663281       33.1265795096
  C        -2.0338375744       14.0195727445       34.2001315973
  H        -1.7180083752       12.3634511254       32.9986254553
  H         8.0413422643       14.5562858434       19.5143464026
  H         8.5896228064       13.1879382523       20.4586647466
  H         8.2262352146       12.9934280727       18.6765956406
  S         3.6616785390        9.2716041300       14.3966577125
  C         3.7344697826        6.6790588980       13.8632383023
  H         4.4268328753       10.7922635672       30.2001584807
  H         4.2372640731       10.3873698887       31.9409099429
  C         5.4336565383        9.0157716890       30.7902486001
  H        -4.9883983858       11.3029544296       26.6848696682
  H        -5.8632108557       10.6153135760       27.9720308177
  C        -6.1471308021        9.5084047717       26.1204242731
  S        -1.5091126527       17.9548089342       31.5602762048
  N        -1.9135609757       17.5562336113       33.0770751390
  C        -2.0167855797       15.5047887964       34.3073759993
  H        -2.3460291865       13.3689928143       35.0067532065
  C         4.0137631683        8.6525709312       12.7728892534
  N         4.0338558814        7.2867119967       12.6861963846
  O         3.7844315024        5.4692279232       14.0969117375
  H         6.3875148299        9.6040762031       30.6526348270
  H         5.2932309387        8.3490279788       29.9516916804
  C         5.6132718228        8.1350980306       32.0382132302
  H        -5.5474713299        9.1341881844       25.3245583486
  H        -6.5815915158        8.6133230524       26.5729808919
  C        -7.2006603327       10.3852372764       25.5480904984
  C        -2.4364534618       16.2655759891       35.4920403959
  S         4.4066045299        9.4945783021       11.3592001154
  C         4.0236899160        6.5634422373       11.3596126222
  H         6.0883005746        8.5750446717       32.8450226503
  H         4.6508776433        7.9238429553       32.5346666268
  C         6.2269150232        6.7553324892       31.7292128870
  H        -7.0036522019       10.3631716122       24.4339953829
  H        -7.2236579460       11.3913734621       25.9087640636
  C        -8.5965808199        9.6492635801       25.5750187406
  H        -2.0961424068       17.3136363604       35.4820128314
  C        -2.9808766461       15.9175031398       36.7365894455
  H         4.7534817952        6.9880785185       10.6621131317
  H         4.4108577780        5.5625171382       11.5710413308
  C         2.6284374932        6.3809945737       10.8542859206
  H         6.9030103314        6.4477336608       32.5703240462
  H         6.9590039941        6.9424386355       30.9195648719
  C         5.2818269028        5.6334115669       31.3935440909
  H        -9.2518075227        9.9902305185       24.7739874413
  H        -8.4223371810        8.6478944597       25.2582182352
  C        -9.3178312288        9.5895202195       26.9382255512
  S        -3.4792973883       14.3477396053       37.2177315704
  C        -3.1337316966       17.0291123237       37.7347744137
  H         2.5126179807        5.5177796537       10.2092058968
  H         1.9816244396        6.2489696989       11.7267491132
  H         2.2679577303        7.3216045346       10.3537730092
  H         5.3235480103        4.7709447223       32.0063810711
  H         5.5220706070        5.2777471542       30.3922298913
  H         4.2252478769        5.9657219174       31.1983112671
  H        -9.6491827051       10.5239997782       27.3272545155
  H        -8.7253698164        9.0378760059       27.6555889425
  H       -10.2618780542        8.9938076650       26.8956193232
  C        -3.8298576976       15.1913866787       38.7619127269
  N        -3.7009263831       16.5286021545       38.7980551169
  O        -2.8449299816       18.1789526239       37.5223119809
  S        -4.5752082360       14.3990684549       40.2386461483
  C        -4.0193086380       17.3439722584       39.9859176238
  H        -4.2906159874       18.3914673730       39.6105099597
  H        -4.9141022064       17.0304452011       40.5302829872
  C        -2.7541279200       17.4955802167       40.8879098526
  H        -1.7947290783       17.3714632337       40.3776904040
  H        -2.7242189844       18.3826373227       41.4947019559
  H        -2.7445194398       16.6374243568       41.6061836493
  H         7.4080446798       11.0286387838        2.5537867486
  C         8.0885410545       10.1874610833        2.8619635724
  H         7.4267066576        9.2759751769        2.7413330746
  C         8.7933080265       10.1691616507        4.2462534245
  C         9.0261975265       10.2346743074        1.6766460085
  C         7.7849325104       10.3031102757        5.3243021188
  H         9.4204725850        9.3085590921        4.5336457566
  H         9.4655198576       11.0476767466        4.4914693332
  H         9.7574585801       11.0063186893        1.8030085551
  H         8.5974235365       10.2697336206        0.6797022910
  H         9.6866469476        9.3510596371        1.6766343659
  C         7.0226906460        9.0535448495        5.6359890670
  H         8.1799513176       10.6452003168        6.2486625271
  H         7.1136994869       11.0867142477        5.0162791789
  C         6.4868824716        9.1355393999        7.0876415485
  H         7.6974437258        8.2458413683        5.5804359193
  H         6.2171325236        8.9296649266        4.9736085288
  C         5.2625660242        9.9783495079        7.2021824330
  H         7.2522060443        9.5797163801        7.6778380419
  H         6.2823101235        8.0778323084        7.3781490663
  C         3.8994543229        9.3879939783        6.7360192011
  H         5.2083890595       10.2193781336        8.3003493296
  H         5.5076202246       10.9408025905        6.6021542966
  C         2.6760181549       10.3788886342        6.6612867099
  H         3.5402074925        8.7424743873        7.4485690306
  H         3.9507234334        8.7652544543        5.8392616997
  C         3.0702657394       11.7282100627        6.0769843584
  C         2.3574133161       11.0501416971        7.9893464818
  C         1.4500109435        9.7548165064        5.9535463601
  C         2.9954706500       12.7855031129        6.9210120700
  C         3.5625326794       12.1791394304        4.8259345714
  C         2.4699220765       12.3754552744        8.1350381131
  C         1.8676478561       10.4500190762        9.1603817115
  H         1.8681562755        9.4045079675        4.9893147605
  H         1.2836183659        8.8255419940        6.5361993918
  C         0.1599373305       10.5871598636        5.9218127650
  S         3.3849315245       14.3107570052        6.2959117424
  C         3.7738315321       13.5514728010        4.8065716497
  H         3.6096872511       11.5272931175        4.0439794560
  C         2.0998838261       13.0019686708        9.3175008627
  H         1.7920134180        9.3879034905        9.0868829524
  C         1.4995109305       11.0900289021       10.2538059878
  H         0.4644051435       11.5234052167        5.5002510982
  H        -0.0977475486       10.6976727396        6.9964957464
  C        -0.8642872450       10.0488455041        5.0049839147
  C         4.1476091925       14.2920183402        3.5371369452
  C         1.5543168438       12.4558300882       10.4350716329
  H         2.3639651545       14.0729909296        9.3878639668
  C         1.0218116336       10.7201403860       11.5023909492
  H        -1.7252380980       10.4593472117        5.4269322140
  H        -0.8454027779        8.9405981416        5.0882084070
  C        -0.5059900197       10.5160349782        3.6100471308
  C         4.0354684272       15.6986326698        3.2586519777
  C         4.6059873284       13.4275924847        2.3705860634
  C         1.2353510527       13.0694236920       11.7395979490
  C         0.8581361340       11.7602297641       12.3508147867
  S         0.6266644883        9.2219944619       12.2400641443
  H         0.5318319670       10.3604195651        3.3121468069
  H        -0.7326384142       11.5800649950        3.6522816030
  C        -1.4091261592        9.9527674383        2.6034457174
  N         3.5705114505       16.6943993942        4.1355037787
  C         4.3763236776       16.2415243816        2.0146747151
  C         4.9164409366       13.9477464059        1.1087147011
  H         4.7523665827       12.3768437968        2.5165870395
  C         0.0330247490       14.0808659250       11.6819180973
  C         2.4560516031       13.8203751719       12.4686326959
  C         0.4391673456       11.3830505408       13.6388247025
  C         0.4483890649       10.0413748128       13.7241667469
  H        -1.4653329894        8.8484812639        2.5764333773
  H        -2.3031992253       10.4174777532        2.7182927341
  C        -0.9202541161       10.3799783340        1.1956790258
  S         3.7507067773       18.1575791646        3.3798874462
  N         4.1292226549       17.5978822241        1.9055619984
  C         4.7442350355       15.4234432737        0.9251297329
  H         5.2950607871       13.3685778361        0.3000547754
  H         0.3670646316       14.8838665067       11.0032619535
  H        -0.1347358989       14.4616509571       12.6522176568
  C        -1.1935524554       13.3964863710       11.0652192393
  H         2.6884246606       14.7375571541       11.9056888413
  H         2.1495017189       14.0391556947       13.4408411980
  C         3.7534448434       13.0994841896       12.6670173304
  H         0.2817722913       12.1807942720       14.3730664518
  C         0.1237686152        9.3042196161       15.0241804701
  H         0.0290410133        9.8182824206        1.0495498599
  H        -0.5885254975       11.3583133021        1.2293112343
  C        -1.9137702775       10.1812977580        0.0857080646
  C         4.9190723954       16.0156746777       -0.3171413225
  H        -0.9772238865       12.9300428866       10.1286153234
  H        -1.5511933243       12.5940895088       11.6568423490
  C        -2.4158975339       14.2379316990       10.7364759603
  H         4.0395899397       12.7428545383       11.7501685183
  H         3.6675579868       12.2012806649       13.2864563066
  C         4.7830632050       14.0171092480       13.2994786888
  C         0.0287400895        7.9157408241       15.1941351939
  C         0.0055601114       10.0231883543       16.2833199450
  H        -2.2839275858        9.1944760015        0.0068610981
  H        -2.8248165066       10.8613455621        0.2035738797
  C        -1.3820389863       10.6085344275       -1.3494363263
  H         5.0009795140       17.0870208153       -0.3381286504
  C         5.2174272052       15.4725721544       -1.5603960428
  H        -2.1308771519       14.9921535202        9.9596896674
  H        -2.7563584339       14.8720818258       11.5943715097
  C        -3.6086250404       13.2434659932       10.4552219362
  H         5.1049316609       14.5970323550       12.5158343182
  H         4.3709612953       14.6981306721       14.0711760382
  C         6.0048759397       13.3853069199       13.8275802898
  N         0.1350425315        6.9743348324       14.1546204269
  C        -0.2182878959        7.3057740191       16.4174040308
  C        -0.2267368587        9.4795285450       17.5393629380
  H        -0.0414908992       11.0835943573       16.2053020019
  H        -0.3174296782       10.3538312519       -1.3551475072
  H        -1.4560336127       11.7067047568       -1.3376574168
  H        -1.9788310909       10.0825538894       -2.1643798805
  S         5.5204201057       13.8498298520       -2.1246219249
  C         5.4838722689       16.5046717858       -2.5785573539
  H        -3.2826872869       12.4299856279        9.7765411007
  H        -3.8601677502       12.6698954469       11.3707066344
  C        -4.6607871310       13.9999800193        9.6780602019
  H         6.6813229995       13.0424114627       13.0598113958
  H         5.7435019400       12.4469632509       14.3819433461
  C         6.9384297992       14.2500077603       14.7568786031
  S         0.2438324275        5.4997325926       14.8080404601
  N        -0.0658631663        5.9209908669       16.3301960026
  C        -0.3495256948        8.0109478051       17.6621506734
  H        -0.4280248064       10.1683116407       18.2980992988
  C         5.8800977422       14.5631341857       -3.5940668244
  N         5.8532080307       15.9004622276       -3.7274121170
  O         5.4184741260       17.6965632359       -2.3900100894
  H        -5.0433785850       14.7393644919       10.3971771054
  H        -4.3184357498       14.5823200556        8.8449612083
  C        -5.8218776118       13.1433939906        9.3112426236
  H         6.3465109096       14.3109670163       15.6294564036
  H         7.8137180018       13.7068934490       15.0548489027
  C         7.2780683600       15.5627127790       14.2061491745
  C        -0.6758883799        7.3285590608       18.8308714302
  S         6.1757507474       13.6164798390       -5.0025635138
  C         6.0721023551       16.5781159093       -4.9721978450
  H        -5.6830700090       12.9486254746        8.2922069427
  H        -5.7401310082       12.1573451167        9.8106397798
  C        -7.2181609872       13.7527136931        9.5421714166
  H         6.4174529461       16.1624611146       14.2704259111
  H         7.3965776383       15.4654138787       13.1403184016
  C         8.4284799806       16.2453858104       14.8675110471
  H        -0.8554286096        6.2935078759       18.6349008533
  C        -1.1225875334        7.6303907811       20.0760805562
  H         6.8779145588       16.0865124057       -5.5646363212
  H         6.4814326602       17.5389234337       -4.7337605172
  C         4.7292064267       16.8123100921       -5.6234112863
  H        -7.8745382549       13.2994017847        8.7721542354
  H        -7.3038387683       14.8175356235        9.3431516662
  C        -7.7625258608       13.5532806899       10.9738067366
  H         8.6010301096       15.9304444283       15.9109315721
  H         9.2809238984       15.8792457224       14.2207641430
  C         8.3312920089       17.7334492970       14.6484527883
  S        -1.3311939555        9.1856383907       20.7260803597
  C        -1.4734409337        6.4839726148       20.9575366340
  H         3.8515247324       16.8922645213       -4.9471367565
  H         4.5163855403       16.1168739665       -6.3687697308
  H         4.8448038056       17.7924820935       -6.0325179042
  H        -8.2863661785       12.6088993730       10.9452583146
  H        -7.0839245222       13.5984450064       11.8433620539
  H        -8.5959100488       14.3686299732       11.2277334091
  H         7.3159731820       18.0208410793       15.1012287415
  H         9.2250706621       18.3208713694       15.0569634090
  H         8.2292677829       17.9490201247       13.6023593531
  C        -1.7568586546        8.3410702020       22.2333288120
  N        -1.7067904768        7.0292550181       22.1771214511
  O        -1.2988634614        5.3000979213       20.7085667574
  S        -2.3490717314        9.0001421645       23.7349951365
  C        -1.8429613416        6.1804740200       23.2937910256
  H        -2.1551357217        5.1968197524       22.9438727549
  H        -2.6688227643        6.4075396743       23.9511408671
  C        -0.5993299647        6.1731631886       24.1850345261
  H        -0.8945750722        6.2006666810       25.2682511554
  H         0.0130095968        7.0820354152       24.0703788755
  H         0.0200515957        5.2649188040       23.9688507875
