352
i =
  H        -2.7673763487       14.8980808894       16.3694917660
  C        -2.7468109544       13.8161235151       16.3262657343
  H        -3.7350361129       13.4605974947       16.1625613873
  C        -2.1072724935       13.2901690312       17.5777745532
  C        -1.9956291935       13.4063864907       15.1100664060
  C        -2.4861669352       14.0273848255       18.8526106345
  H        -2.2872897085       12.2058412813       17.6914581314
  H        -1.0618811362       13.4058950048       17.4434419346
  H        -1.8011054844       12.3859341032       15.3195285685
  H        -2.6458391757       13.4247956478       14.1679024060
  H        -1.0999912761       13.9388679999       14.9055084184
  C        -2.3003984889       13.0013745576       20.0055490122
  H        -3.5548915429       14.4049857622       18.8606440035
  H        -1.8379673162       14.9172658192       19.0024829853
  C        -2.5082970422       13.5467444907       21.4139095910
  H        -2.8823410210       12.0612672000       19.7462831586
  H        -1.2209248091       12.6758817919       19.8777344553
  C        -1.5619198817       12.8556787773       22.3924956539
  H        -3.5499916657       13.3195702733       21.6942946276
  H        -2.5022595765       14.5972481536       21.2657302418
  C        -0.3388778203       13.6701427284       22.5246104927
  H        -2.0215509003       12.5731557862       23.3227494414
  H        -1.3103637918       11.8574851132       21.8982569506
  C         0.9346558917       12.9711610445       23.1814369200
  H        -0.0777931085       14.0008520360       21.5125844464
  H        -0.4627768416       14.6087660467       23.0187374474
  C         1.2129158688       11.6357296487       22.4765735108
  C         0.5029155639       12.2497783810       24.4403195924
  C         2.1331568091       13.9456663093       23.3212047018
  C         1.0284116838       10.5648303556       23.3259756971
  C         1.6794099547       11.2481163634       21.1449774756
  C         0.5194815634       10.9025797831       24.5556200490
  C         0.0641963020       12.8425249368       25.6063311432
  H         2.2069683651       14.4863199100       22.3208408109
  H         2.0034686385       14.7190378747       24.0719345297
  C         3.4683120474       13.2214661886       23.6566202373
  S         1.5258125991        9.0521891999       22.5350819899
  C         1.9391101920        9.8999463817       21.1031023924
  H         1.9848935788       11.9602079497       20.4104051694
  C         0.1469220123       10.3034432407       25.7154677865
  H         0.0382577564       13.8891962211       25.6217036856
  C        -0.3441578715       12.2456631498       26.7512784504
  H         3.8828014950       12.6006311258       22.8913720453
  H         3.4883514510       12.5833351698       24.5283875423
  C         4.6279508503       14.2561336249       23.8290175887
  C         2.3621354011        9.1876087870       19.8724547407
  C        -0.3800016008       10.9106824520       26.8535166187
  H         0.4205511363        9.2893687275       25.6636194732
  C        -0.6434911627       12.6595002902       28.0578039280
  H         5.3490091611       13.8714265679       24.5043662435
  H         4.3239272587       15.0709252812       24.4590605394
  C         5.2010741901       14.7596449349       22.5188270211
  C         2.3819652783        7.8126003484       19.6461067139
  C         2.7182484489       10.0071119061       18.6703937601
  C        -0.8148554925       10.2733914715       28.1801995805
  C        -0.9370059629       11.6519169151       28.8858465150
  S        -0.8095128902       14.1789592553       28.7966644876
  H         5.5557451479       15.8209258792       22.5870977126
  H         4.4177930538       14.7987488889       21.7001141359
  C         6.3672957266       13.9424098993       21.9705689842
  N         2.0261940990        6.8779568892       20.6017952194
  C         2.6049775377        7.1927273481       18.4561540449
  C         2.9990160257        9.4314666208       17.4402656000
  H         2.9203047023       11.0989741457       18.8625482006
  C         0.3344172977        9.4917943720       28.7450780416
  C        -2.1880389043        9.5472547830       28.1398493257
  C        -1.3909102985       12.1021418855       30.1944088408
  C        -1.2948776573       13.4840324932       30.2956464378
  H         7.1292982933       14.6773360359       21.7072441150
  H         6.7703174008       13.4892214311       22.8786193610
  C         6.1488648646       12.8649585882       20.9579928314
  S         2.2152080951        5.3471543235       20.0261897024
  N         2.6879334885        5.7756783366       18.5321365777
  C         2.9661939332        7.9274624373       17.2786732209
  H         3.4491162424       10.0325867640       16.6750463125
  H         0.9433916972        9.0520694533       27.9486687112
  H         0.0992535102        8.6738847367       29.4354440019
  C         1.4587931162       10.3623518678       29.4282955243
  H        -1.8531869376        8.5531633384       27.7600657694
  H        -2.3875252654        9.4805364719       29.1403110717
  C        -3.2994635314       10.2035726416       27.3975146788
  H        -1.8444524552       11.4240007128       30.9172185286
  C        -1.4171049640       14.2888013582       31.5258077020
  H         5.1636039111       12.3832710092       20.9448056854
  H         6.8258401642       11.9988579061       21.0879825686
  C         6.2612441162       13.4153335843       19.5546149430
  C         3.2230077846        7.2224759039       16.0691316834
  H         1.6470234122       11.1997826540       28.7999565372
  H         1.0906717878       10.6848292743       30.4129169225
  C         2.6890980137        9.5610167601       29.8381074805
  H        -3.0659424779       10.6396501471       26.4267672663
  H        -3.5349141846       11.0919129512       28.0925485878
  C        -4.5612498802        9.3101027483       27.2569258019
  C        -1.4584510160       15.6768885664       31.6210492104
  C        -1.4818432579       13.5761248324       32.8048248040
  H         5.6877237432       12.8469057761       18.8614630133
  H         5.8648748864       14.4171287350       19.4736243912
  C         7.6594252035       13.4782349188       19.0663653528
  H         2.9804294711        6.1636193468       16.1019381860
  C         3.6283094631        7.7156206267       14.8638856040
  H         3.3228980944        9.1882822770       29.1115225678
  H         2.4586524540        8.5645586614       30.2987798724
  C         3.7555017568       10.3149779425       30.6402291847
  H        -4.2281841739        8.3872652548       26.8442668041
  H        -5.0306358070        8.9796513632       28.1452791998
  C        -5.5286730686       10.1003715698       26.3775647891
  N        -1.2530402075       16.5765867159       30.5840028476
  C        -1.6296088242       16.3618219170       32.7855898497
  C        -1.8089265462       14.2193906424       34.0041702365
  H        -1.2456889764       12.5383435254       32.7471811547
  H         7.7987073725       12.9513572237       18.1087244637
  H         8.0835664133       14.4934889816       18.9782866918
  H         8.2660135239       12.7788592727       19.6447469201
  S         3.9872961605        9.3841599424       14.4037639062
  C         3.6924250827        6.7210904992       13.7730440458
  H         3.9014518737       11.3308280675       30.3111814817
  H         3.3434369939       10.3692876408       31.6351380178
  C         5.1722809235        9.7440068759       30.5796221920
  H        -4.9679694604       10.3032016189       25.4702239934
  H        -5.6438118652       11.0801916968       26.8185656725
  C        -6.7919770618        9.4509788890       26.0780996498
  S        -1.3669833192       18.1022870117       31.1409251325
  N        -1.7024749019       17.7441011096       32.6626129726
  C        -1.9660142666       15.6965278571       33.9940082661
  H        -1.9105900123       13.6390002092       34.9160443679
  C         4.0660207590        8.7227460090       12.7632690328
  N         4.0462637486        7.3768701526       12.6147887131
  O         3.4958912151        5.5119748020       13.9024843722
  H         5.6520791307       10.5614844961       31.1972948775
  H         5.6504430227        9.7514067046       29.6311058519
  C         5.4697312481        8.4860228501       31.3286392206
  H        -6.6798404333        8.5338149132       25.5909598180
  H        -7.3563564674        9.2508518626       27.0285797752
  C        -7.6324380542       10.2063785813       25.0319533917
  C        -2.2469120808       16.5050581233       35.1086496356
  S         4.5019379667        9.6712166890       11.3988532270
  C         4.0873816925        6.6886078368       11.3037123977
  H         6.3572362782        8.6987331692       31.9227770114
  H         4.7231109315        8.2525194888       32.0334447384
  C         5.4802767961        7.1367398794       30.5274851829
  H        -7.1247901440       10.5306276363       24.1831606874
  H        -7.9993687922       11.1190949743       25.4683216960
  C        -8.8506095354        9.3750741245       24.7968508864
  H        -1.9301689312       17.5360151001       34.9607600028
  C        -2.7491897883       16.2204623872       36.3797172756
  H         4.6652703484        7.1698228043       10.5628238437
  H         4.6312834690        5.7358221490       11.4436229293
  C         2.7441566466        6.3018114891       10.8021958450
  H         4.6613781770        6.9507328331       29.8695670920
  H         5.5475068970        6.3656537367       31.3662187384
  C         6.6531534410        7.0773949759       29.4977690117
  H        -9.2860793276        9.7767359711       23.8168806228
  H        -8.5765115641        8.3116260905       24.7061722765
  C        -9.8745868342        9.5477944007       25.9130965489
  S        -3.2660319381       14.5963381620       36.9510522808
  C        -2.8498261931       17.3131976481       37.4359840965
  H         2.7539320227        5.4318481407       10.1428893159
  H         1.9237683548        6.2698613709       11.5824063124
  H         2.5054619392        7.0626102893       10.0683207685
  H         6.2942699563        7.0811043957       28.5385265985
  H         7.4187082283        6.2810479628       29.7603765779
  H         7.2397859343        7.9679916032       29.5768759243
  H        -9.6938367711        9.0524336519       26.8605201292
  H       -10.7598514070        9.0423192909       25.4636732606
  H       -10.2795769150       10.5436108006       25.9846563106
  C        -3.6050534116       15.4115618640       38.5063666939
  N        -3.4664476414       16.7644077391       38.4928413856
  O        -2.6041978334       18.4769945755       37.3052643969
  S        -4.3994739455       14.5908749298       39.8579493512
  C        -3.5589727169       17.5969701504       39.7272872476
  H        -3.7868575328       18.5732780425       39.4472744883
  H        -4.3462614186       17.1995155471       40.3458757899
  C        -2.2613785795       17.6763721964       40.4596950701
  H        -2.0880553568       16.7342551875       40.9475740291
  H        -1.4740461491       17.9997800206       39.8628068594
  H        -2.2587202840       18.4106899683       41.2456167232
  H         7.3920313569       11.1159838578        3.5215406028
  C         8.2322690136       10.3988863217        3.5756593832
  H         7.8572914630        9.3848844167        3.6808214839
  C         9.1107684973       10.7701712631        4.7739413596
  C         9.0768688067       10.4222970592        2.2991226928
  C         8.3649834364       10.9707744231        6.0543006191
  H         9.8510610649       10.0120940223        4.8815584947
  H         9.6295281548       11.6533206690        4.6402173514
  H         9.7210900728       11.3237248478        2.1560715751
  H         8.5202272230       10.4664336779        1.3823481909
  H         9.6186914344        9.5426623111        2.2568038969
  C         7.5432026193        9.6820221192        6.4819112249
  H         9.0557346547       11.1863443192        6.8496845548
  H         7.5888161576       11.7328471857        5.8183658418
  C         6.8129608463        9.8017708625        7.8444733475
  H         8.1600414389        8.7658200566        6.4907504148
  H         6.8268742253        9.3571765566        5.7656879364
  C         5.5738341377       10.5823213463        7.7027860808
  H         7.5313430319       10.2279332166        8.5593255334
  H         6.6965358051        8.7724399492        8.2068833433
  C         4.3998051212        9.7136827347        7.2633084968
  H         5.3688412478       10.9386463612        8.7737724367
  H         5.8159578690       11.4116484056        7.0146452078
  C         3.1072617647       10.4802365694        7.0072779841
  H         4.2377804073        8.9537259300        8.0998497908
  H         4.6715413226        9.2823458507        6.2532429909
  C         3.3756992069       11.8378274011        6.3376040805
  C         2.5918770250       11.1885765633        8.2527173753
  C         2.0535777999        9.6952162174        6.2962256407
  C         3.0800265844       12.9224246468        7.1227037308
  C         3.7580931723       12.2249435438        5.0898201213
  C         2.5030455534       12.5548590444        8.3322181467
  C         2.0221076362       10.6237786616        9.3774203606
  H         2.4731433958        9.5187045144        5.3410829889
  H         1.9662146482        8.7302898150        6.7347349765
  C         0.6983492824       10.4644340878        6.1679119954
  S         3.4345240568       14.4193230148        6.4143306716
  C         3.7801429655       13.5497274578        4.9446528704
  H         4.0285692714       11.4897894764        4.3588850806
  C         2.0887927059       13.2108305477        9.4817955269
  H         1.8613269185        9.5718070336        9.3018401789
  C         1.6202649038       11.2339609779       10.5240453414
  H         0.8168998828       11.5432454230        5.9032929774
  H         0.3153411296       10.4421633477        7.1506164904
  C        -0.2523091138        9.7886430839        5.0942034569
  C         4.4279916494       14.3550662847        3.8253452643
  C         1.7115516137       12.6110143764       10.6330703726
  H         2.1600317379       14.2682892150        9.5478652678
  C         1.1032533350       10.8043338131       11.6943171497
  H        -1.2464619787       10.2506774744        5.2043168012
  H        -0.4742816843        8.7153807826        5.0846290398
  C         0.1353251716       10.2256698611        3.6114242040
  C         4.3783759755       15.7623120286        3.5898522391
  C         4.9025641456       13.5209399618        2.7202584777
  C         1.2626920454       13.3061851755       11.9157272424
  C         0.9163607367       11.9073359709       12.5206880731
  S         0.8735844732        9.2539026758       12.4408238845
  H         1.0938946174        9.7495456319        3.3450651485
  H         0.2474413466       11.3139531235        3.6185484935
  C        -0.8980420681        9.8704961079        2.6200070327
  N         4.0454152152       16.7547452103        4.4529124329
  C         4.7201512161       16.2842907605        2.3531586403
  C         5.2012498490       14.0643628510        1.4723500752
  H         5.2438552049       12.5210001215        2.8976919648
  C         0.0434117531       14.1903120174       11.6208864691
  C         2.2629769976       13.9525746020       12.9085860654
  C         0.5831700165       11.4657685944       13.8186561644
  C         0.4727159080       10.0786676260       13.8693576712
  H        -1.6071781609        9.0073593680        2.8418028389
  H        -1.5274240548       10.7246157831        2.5309325083
  C        -0.2813055484        9.7357644303        1.2287019177
  S         4.0952325979       18.1600340372        3.7349344379
  N         4.5316185253       17.6591939667        2.2867797732
  C         5.1077204240       15.5275924284        1.2045423729
  H         5.6307943096       13.3967371562        0.6650331566
  H         0.3079658166       15.0579084244       11.1213722944
  H        -0.1237363461       14.6295214296       12.6182492134
  C        -1.1279471292       13.4869443310       10.9215730974
  H         2.7912964880       14.8090014915       12.3661004058
  H         1.7073151719       14.4290218792       13.7040027853
  C         3.4316812761       13.1486945921       13.4683753586
  H         0.4764693832       12.2391503643       14.6147376017
  C         0.2205442006        9.3838746930       15.1646054336
  H         0.7112268427        9.1951889282        1.2297930501
  H        -0.0421853866       10.7242153193        0.9029979091
  C        -1.2616354504        9.3233167281        0.1683528250
  C         5.3315632174       16.1431156466       -0.0715721736
  H        -0.8401736510       13.0773533698        9.9645222326
  H        -1.4424188975       12.6140095409       11.4952264764
  C        -2.3189333031       14.3937239530       10.7031116317
  H         4.0342956887       12.6517247948       12.6763753937
  H         3.0797231238       12.3180119496       14.1432603885
  C         4.3730630311       14.0976095702       14.2868697634
  C         0.1691285596        7.9959690746       15.3889147434
  C         0.0028967664       10.2262595637       16.4389240234
  H        -1.4698655432        8.3044590843        0.3156415761
  H        -2.1999692538        9.8143906558        0.4322118648
  C        -0.6516325077        9.6948924045       -1.2368518972
  H         5.1964329088       17.2088862235       -0.0069063078
  C         5.6023338754       15.6566673453       -1.2960219551
  H        -1.9330055343       15.3104111382       10.3236821971
  H        -2.6736104585       14.7078037945       11.7163674796
  C        -3.4140929468       13.8025782583        9.7693898888
  H         4.5976108792       14.9586024237       13.6834909051
  H         3.8339060478       14.5596309427       15.1022980964
  C         5.5798786307       13.3174840140       14.9492332897
  N         0.3252617997        7.0635351269       14.3516246310
  C        -0.1358563480        7.4146224930       16.6507102308
  C        -0.2947844575        9.6505107461       17.6828193151
  H        -0.0687374144       11.3184320517       16.4411098417
  H        -0.9158764124        9.0528844285       -2.1276354363
  H         0.4095197315        9.5216936770       -1.2077760904
  H        -0.7572607517       10.7244591866       -1.5379757178
  S         5.8877824078       13.9964119708       -1.7842931791
  C         5.6104154734       16.7102588778       -2.3837899355
  H        -3.6226728534       14.4801888911        8.9421200392
  H        -3.1356777566       12.8830347536        9.2839019558
  C        -4.7068433755       13.5089210164       10.6306930819
  H         6.0774924267       12.6448848260       14.1585644516
  H         5.3024239295       12.6503357783       15.8093506827
  C         6.5532022288       14.3430988715       15.4501426873
  S         0.2283494944        5.5920554602       15.0182063391
  N        -0.1571136133        6.0070225955       16.5315844340
  C        -0.4280625486        8.1578922077       17.8203213818
  H        -0.4771626425       10.2630175146       18.5369072962
  C         6.0776446170       14.6356664945       -3.3762066854
  N         6.0144445026       15.9920313662       -3.4537853742
  O         5.3389772735       17.8874714951       -2.2403354069
  H        -4.4140913858       12.8677622197       11.4825013960
  H        -5.0981161633       14.3711722224       11.0935937173
  C        -5.7396084709       12.8278760711        9.7841374769
  H         6.0288573118       15.0026339776       16.1692689977
  H         7.2762735684       13.7964940682       16.0942103760
  C         7.4173772181       14.9524139841       14.3846703796
  C        -0.7608567898        7.4622839362       19.0378445092
  S         6.7161666457       13.8720505525       -4.7426620430
  C         6.1412265556       16.7420341986       -4.7139386028
  H        -5.1820231079       12.2709416659        9.1035088253
  H        -6.3154304923       12.0447075327       10.2828574278
  C        -6.6725417233       13.7264617212        9.0407745594
  H         7.2741853341       14.4287180613       13.3979592244
  H         8.4483108777       14.7727106034       14.5374622977
  C         7.0983640745       16.3882674104       13.9702089748
  H        -0.5133804021        6.4711055994       19.0580760327
  C        -1.3664605685        7.8226974223       20.2519461991
  H         6.8745327475       16.3815284629       -5.3950885723
  H         6.4838835686       17.7462302831       -4.4261399150
  C         4.8660063603       16.8072746590       -5.4217965145
  H        -6.8189469827       13.2332282720        8.0855806434
  H        -6.1768992802       14.7510092374        8.9411920969
  C        -7.9413325576       13.8302651745        9.8231264514
  H         7.4758670921       16.4740314533       12.9139851062
  H         6.0933022273       16.5821754498       13.9552999300
  C         7.7962396655       17.4858709523       14.8186013582
  S        -1.9479585089        9.3520050618       20.6134443553
  C        -1.4306518015        6.7787531392       21.3455362826
  H         4.4178166082       15.8182509526       -5.5232652822
  H         5.1689227208       17.1652069682       -6.4766310607
  H         4.1756110225       17.4946760009       -4.9014239746
  H        -7.7631525184       14.0744746907       10.8379910999
  H        -8.7484154913       14.4318220203        9.3416054020
  H        -8.4825622986       12.8985914298        9.9763130682
  H         7.9408878677       17.1645174262       15.8489790280
  H         8.7263843537       17.8023582961       14.4168685109
  H         7.3193503835       18.3976468357       14.9500164800
  C        -2.3144804328        8.6398132496       22.2076739816
  N        -2.0837226380        7.3310681627       22.3636169288
  O        -1.0376595242        5.6346196910       21.2822277552
  S        -3.0191759218        9.4992877517       23.5795777937
  C        -2.1869607995        6.5598932692       23.5873572001
  H        -2.3471243112        5.4992963015       23.3663703441
  H        -3.0240335872        6.8108360026       24.0962796933
  C        -0.9159942007        6.6095645323       24.4286077273
  H        -0.8776578478        7.6232995339       24.8591372289
  H         0.0047752993        6.4803402460       23.9026366679
  H        -0.9301717173        5.8174643509       25.1561462471
