352
i =
  H        -3.3948210201       14.4833216018       16.0900129324
  C        -3.2216521258       13.3936933650       16.2812550602
  H        -4.1724565916       12.8869470500       16.4989583467
  C        -2.1741829495       13.3200528646       17.3814667782
  C        -2.7513437057       12.6990205534       14.9910952934
  C        -2.8205495040       13.4080827155       18.7293231303
  H        -1.5845980420       12.3661052086       17.2435317703
  H        -1.4723993196       14.1219152050       17.3194487422
  H        -2.4655127570       11.6956864339       15.1581645740
  H        -3.5743788747       12.5834325193       14.2175438411
  H        -1.9257448074       13.1552411978       14.5117897296
  C        -1.8181588081       12.8414056907       19.7039711776
  H        -3.6972895238       12.7658155657       18.7816961054
  H        -3.1149135063       14.3454283117       19.1133994354
  C        -2.2628657986       13.1840802475       21.1680164698
  H        -1.5097452805       11.7536021863       19.6385080103
  H        -0.8905634916       13.4513629808       19.6683330520
  C        -1.3523776411       12.6228898175       22.1967821009
  H        -3.2656389352       12.8002812789       21.4136133434
  H        -2.3140349311       14.2444744481       21.3615382117
  C         0.0089651877       13.3969239393       22.3063831164
  H        -1.8794650537       12.4603424546       23.1689552864
  H        -1.1190550147       11.6017359245       21.7776733880
  C         1.1812334481       12.7684607469       23.1253974324
  H         0.3331730488       13.5193235178       21.2851950465
  H        -0.1408025429       14.4054152438       22.7302834428
  C         1.5878698755       11.3620719104       22.5159044448
  C         0.7546344628       12.1019157869       24.3832372898
  C         2.4329250219       13.6557044279       23.3138808862
  C         1.2535730569       10.3351662958       23.3127920230
  C         2.1896273757       11.0493057830       21.3326532036
  C         0.7676935457       10.7777218044       24.5142772409
  C         0.3335019477       12.7035842749       25.5196693999
  H         2.6542675368       14.1646472063       22.3319168548
  H         2.2070752181       14.4350669296       24.0084405393
  C         3.6408161726       12.9129810577       23.9418505104
  S         1.6731815427        8.7973320348       22.5632766832
  C         2.2256624028        9.6822125959       21.1431345941
  H         2.5784999510       11.8302584776       20.6363315127
  C         0.4441463941       10.1797951219       25.6922335894
  H         0.2089617014       13.7865331994       25.3716933824
  C         0.0622034449       12.1810067598       26.7299594055
  H         4.0325532103       12.0959020641       23.3536327387
  H         3.3272865206       12.3825331820       24.8102916318
  C         4.8524918938       13.8154989756       24.2691928392
  C         2.7007325749        9.0573810289       19.8506951525
  C         0.1116945948       10.8318180654       26.8855062802
  H         0.6624579585        9.1904445662       25.7889303622
  C        -0.3859559116       12.6207588878       27.9630773824
  H         5.6755551455       13.2022288233       24.6192824254
  H         4.6317948151       14.4241122599       25.1434795517
  C         5.4722506511       14.5934338074       23.0916273643
  C         2.7641871861        7.6696830049       19.6028250603
  C         3.1599294784        9.9153734483       18.6791086890
  C        -0.2332407224       10.1662966698       28.1584080918
  C        -0.5610520612       11.5412878055       28.8081565706
  S        -0.7214119220       14.0805427617       28.7055712507
  H         6.1516139846       15.2996401312       23.5683933755
  H         4.6579419810       15.1701754007       22.6695589948
  C         6.2809950276       13.9367292297       21.9853096457
  N         2.5406109338        6.6435320110       20.5717793425
  C         3.0465172332        7.0800159118       18.3935408811
  C         3.5563665486        9.2974233126       17.4653131901
  H         3.2234206414       10.9786255111       18.7394132997
  C         0.8841945923        9.3822342477       28.8564613456
  C        -1.4680974840        9.2719757603       27.8888507425
  C        -0.8859342227       11.9269310650       30.1416315872
  C        -1.0799312148       13.2951174199       30.1798314075
  H         6.8492866616       14.6711750892       21.4910595507
  H         6.8984490367       13.1731156974       22.4006122270
  C         5.4573981719       13.4931471822       20.7774304131
  S         2.3229423536        5.1641209982       19.8363069219
  N         2.7164467586        5.6904026643       18.3157990876
  C         3.3215497915        7.8292328437       17.2378171030
  H         3.9407740644        9.7972597187       16.5911136893
  H         1.1671341157        8.5887765407       28.1727094084
  H         0.6390492484        8.9556596341       29.8351581915
  C         2.1533776776       10.0578451217       29.2611734201
  H        -1.4195288038        8.3698917486       27.1089512055
  H        -1.7166244487        8.8859987418       28.8742505293
  C        -2.6265342676       10.0354911077       27.2686641752
  H        -1.1067266925       11.1948706835       30.9146371870
  C        -1.2901229795       14.0478558582       31.4238068897
  H         4.5422118867       14.0687375599       20.5307419740
  H         5.0600313282       12.4741688658       20.9806742971
  C         6.2716767802       13.4627462078       19.4479248320
  C         3.5774384471        7.1290456204       16.0170958220
  H         2.4306449605       10.7534609415       28.4877652536
  H         2.0805615200       10.6396498697       30.1668114291
  C         3.2322204807        9.1172508573       29.6020662983
  H        -2.3996577183       10.5160229619       26.3289359973
  H        -2.9371861896       10.8497624392       28.0060767332
  C        -3.9386139404        9.2356026903       27.1051405383
  C        -1.4356306050       15.4489221281       31.5204710862
  C        -1.5818065728       13.3072435815       32.6719682603
  H         5.7469495519       12.7192732496       18.8788457749
  H         6.2944942359       14.3987042778       18.9521045300
  C         7.7169864402       12.9981228199       19.6389975388
  H         3.3718873335        6.1143154578       16.0707919069
  C         3.9236764686        7.5622174311       14.7546340583
  H         3.5522546989        8.6356346748       28.6478595012
  H         2.9668260745        8.4146585167       30.4027799308
  C         4.4377905486        9.7784356573       30.2057262218
  H        -3.7875099034        8.4619713926       26.3643553181
  H        -4.1634120031        8.6646464408       28.0166727241
  C        -5.0954880380       10.1669702424       26.7814278047
  N        -1.2953647137       16.3882745704       30.4925195179
  C        -1.8173170294       16.1151728321       32.6652573659
  C        -1.8575082981       13.9431151231       33.8838147619
  H        -1.3949091417       12.2719562920       32.8168707618
  H         8.1997247844       12.5629723321       18.7390188314
  H         8.3994484842       13.6814661210       20.1379856852
  H         7.6793152523       12.1351778072       20.2719908385
  S         4.1854728609        9.1714274752       14.1269697334
  C         4.0012261429        6.5137052441       13.7302362468
  H         4.6555674782       10.7061716810       29.6472583694
  H         4.2254642652       10.1606332992       31.2329167195
  C         5.6231806396        8.8246130713       30.2293695815
  H        -4.6792862648       10.9248721623       26.0224669217
  H        -5.3986794598       10.8039422582       27.6592692635
  C        -6.2933130206        9.4571990339       26.1052653603
  S        -1.4482589785       17.9453160653       31.0872621850
  N        -1.8627601210       17.5526817652       32.5504930310
  C        -1.9867722294       15.4114232448       33.9061654725
  H        -1.9391599919       13.3613747321       34.7954331831
  C         4.3008822738        8.4319491843       12.5020309709
  N         4.2448304846        7.0638944987       12.5057296717
  O         3.9088593141        5.3248611437       14.0185911687
  H         6.6037326644        9.3257237380       30.2120374887
  H         5.6363587680        8.2647632129       29.3416034470
  C         5.5605645178        7.7711762264       31.4715582004
  H        -5.8811267523        8.8071094950       25.3157771908
  H        -6.9105340105        9.0322177840       26.9308860309
  C        -7.0982731063       10.5330239149       25.3103244031
  C        -2.4133093319       16.2061364527       35.0147112837
  S         4.7208286849        9.1871939891       10.9213673733
  C         4.3254345402        6.2249395150       11.3151669568
  H         6.4955115105        8.0013052013       32.1034806865
  H         4.6951250243        7.9733593633       32.1095213188
  C         5.7867157287        6.2692575320       31.2312872930
  H        -6.3714587131       10.9343460669       24.5540337276
  H        -7.3053464422       11.4099286649       25.8589269432
  C        -8.3819859279       10.0722518858       24.7327313777
  H        -2.3104128598       17.2381072820       34.9361454326
  C        -2.9438953020       15.8642163865       36.2560040227
  H         5.0463659851        6.6029306820       10.5694593307
  H         4.8426013232        5.2809108795       11.5666650612
  C         2.9247763482        6.0261416659       10.6823090306
  H         5.1266273447        5.8807330051       30.4593207825
  H         5.4048262547        5.8252902456       32.1382822249
  C         7.2297085726        5.9429916652       30.8324468186
  H        -8.6500847840       10.8273021690       23.9689000449
  H        -8.2307646263        9.1154044531       24.1985827194
  C        -9.5013311233        9.9319509266       25.7927851500
  S        -3.5594347548       14.3331122674       36.7531501359
  C        -3.0650343126       16.9751797495       37.2593154679
  H         2.6244022350        5.0811346875       10.3492000288
  H         2.1896546974        6.5973925763       11.2616549007
  H         2.9033926426        6.5170925532        9.7172000468
  H         7.6248684839        6.6724624913       30.2456727934
  H         7.3282218357        5.0375570275       30.1829581692
  H         7.8372308373        5.8759652018       31.7538321923
  H        -9.1392992877        9.6092789287       26.7037362129
  H       -10.2102324907        9.1805307960       25.4368397196
  H       -10.0307633054       10.8913510737       25.8478409135
  C        -3.5631388968       15.0308082388       38.4097966854
  N        -3.5400689285       16.4177226419       38.3928434416
  O        -2.5622979355       18.0907622273       37.2016603788
  S        -4.2310225381       14.2629608661       39.8439474118
  C        -3.5241851033       17.3056846060       39.5497346990
  H        -3.8029327003       18.3314599432       39.2534389955
  H        -4.3259724724       17.0171598756       40.2036787477
  C        -2.2203224203       17.2231302949       40.3061568915
  H        -1.3271233324       17.0835144972       39.7132426087
  H        -2.1207056070       18.0915361136       40.9499056564
  H        -2.1459853982       16.4605757237       41.0576779290
  H         7.1652932620       10.8464326592        3.6391854887
  C         7.8204857871        9.9868465234        3.6497903000
  H         7.2610689643        9.0929732795        3.8209970602
  C         8.9201443283       10.1057283620        4.7704343396
  C         8.5027641193        9.7467955290        2.2847274251
  C         8.3528617402       10.4919449874        6.1545740838
  H         9.4754909346        9.1425103679        4.9379756498
  H         9.7161451573       10.8314706050        4.4291996028
  H         9.5692874535        9.9829269638        2.2248155685
  H         8.0763863497       10.3457097646        1.5243129489
  H         8.3863204472        8.7656456677        2.0890725896
  C         7.5959225799        9.2927725532        6.7127651701
  H         9.1999521375       10.7393535433        6.7582139121
  H         7.7979539742       11.4178265465        6.2043040734
  C         6.8189149989        9.6341897088        8.0346332675
  H         8.2418420675        8.3865947012        6.8575939052
  H         6.8707863091        9.0932900143        5.9266833618
  C         5.4627899410       10.3867746607        7.8012127497
  H         7.4184436736       10.2547831563        8.6930664407
  H         6.5572701833        8.7175368875        8.5981773341
  C         4.2846195171        9.5681885954        7.2905360345
  H         5.2768510668       10.9065763984        8.7066248137
  H         5.7049711511       11.1701023581        7.1224662346
  C         2.9511446826       10.2897916156        7.0903719377
  H         4.1174190608        8.9626927354        8.0995457937
  H         4.4890245169        9.0009310052        6.4094581157
  C         3.2328204595       11.6884544582        6.4281679303
  C         2.4762600368       11.0428549435        8.3514969572
  C         1.8742683307        9.5091997102        6.4910606070
  C         3.1228620284       12.7868037261        7.2636975189
  C         3.8055649845       12.0418908050        5.1868947462
  C         2.5105523608       12.3803218469        8.4595198762
  C         1.9403837498       10.3748576721        9.4684861708
  H         2.2676244489        9.0644822885        5.5927625663
  H         1.6283637787        8.6821482027        7.1595865701
  C         0.5947007387       10.4247520806        6.0376295791
  S         3.5006032005       14.2691789006        6.5208061063
  C         3.9482609975       13.4161522363        5.0736103859
  H         4.0319881360       11.2797221160        4.4971972465
  C         2.0169882368       13.0151264136        9.6185230024
  H         2.0561377356        9.3420367459        9.5399869556
  C         1.5799980587       10.9718187986       10.6520415844
  H         0.7601791928       11.4472592445        5.8177516053
  H         0.0889366485       10.5343087507        7.0055996042
  C        -0.2143739600        9.8904135231        4.9329496483
  C         4.4822243852       14.0995970343        3.8934556573
  C         1.5525609861       12.3425635978       10.7192517706
  H         2.1103706875       14.0660434547        9.7332104044
  C         1.2499405818       10.4832582222       11.9284606303
  H        -1.1998432980       10.3472795422        4.9224747485
  H        -0.5551101605        8.8928069803        4.9862482690
  C         0.4835671581        9.9914380170        3.5474749639
  C         4.3880207564       15.4703580329        3.5564168018
  C         5.0361012139       13.3119584502        2.7850232202
  C         1.1835389456       12.9782570403       12.0267697334
  C         0.9669893263       11.5843512372       12.6958167103
  S         1.1050067905        8.9292430221       12.7079568713
  H         1.1195226931        9.1337608096        3.3917650169
  H         1.1705335982       10.8246991311        3.4586426565
  C        -0.5653668952        9.7874749252        2.4414734745
  N         3.9638664968       16.4157109505        4.4867465668
  C         4.7390880181       16.0429244217        2.3318559839
  C         5.1956474050       13.7904574897        1.4903343868
  H         5.3202321363       12.2462157932        2.9596266969
  C        -0.1178058874       13.7728359318       11.7875167505
  C         2.3479704734       13.7775030793       12.6947568332
  C         0.4880812091       11.0996082367       13.8903885887
  C         0.5182445967        9.7306161255       14.0646201146
  H        -1.0489976555        8.8506427338        2.7140676939
  H        -1.3045302232       10.5327568033        2.5254199516
  C        -0.0881165472        9.8794867467        1.0634079971
  S         3.9951955115       17.8746173805        3.7740406353
  N         4.4762415159       17.3826707506        2.3252589342
  C         5.0770063957       15.2577696886        1.1677358333
  H         5.5062791858       13.1284910733        0.6649626974
  H         0.1783332692       14.6227255447       11.1619064328
  H        -0.3491564850       14.1172976577       12.7934666490
  C        -1.2371432900       13.0034147031       11.0702149826
  H         2.5214805907       14.7055111621       12.2278717742
  H         2.0257069488       13.8920537271       13.7038319222
  C         3.6830906973       13.0350848223       12.8407768740
  H         0.1907763012       11.8567066183       14.6420001518
  C         0.2913879027        9.0291008407       15.3641399750
  H         0.5517258827        8.9985009882        0.8503866730
  H         0.5074147328       10.7148560941        0.9793847549
  C        -1.1893606505        9.9749342361       -0.0044678237
  C         5.3370832745       15.8727477330       -0.1618447814
  H        -0.9159283097       12.7633230437       10.0190525548
  H        -1.4319784757       12.0089621353       11.5664079962
  C        -2.4945440440       13.8361900357       11.0193018123
  H         4.1483167752       12.7385907909       11.9046914582
  H         3.4566200262       12.0102107576       13.2426182105
  C         4.6779886016       13.9205889086       13.6624763449
  C         0.1662557435        7.5961150084       15.5573737909
  C        -0.0004862580        9.8341185613       16.5646035003
  H        -1.5735684110        8.9620734030       -0.3079585497
  H        -2.0544602340       10.5714722829        0.4067045584
  C        -0.7323791127       10.7044139075       -1.2171911217
  H         5.1129354729       16.9634719940       -0.0569265526
  C         5.6335911165       15.4674981708       -1.4379069045
  H        -2.2996269552       14.7842577884       10.5348058489
  H        -2.8521914514       13.9924450219       12.0232249753
  C        -3.5978689250       13.1545112621       10.2039204706
  H         5.0760442601       14.6777266817       12.9352003438
  H         4.1099347297       14.5857791114       14.3017559519
  C         5.8640011354       13.0611904751       14.2494844754
  N         0.3637640679        6.6063214400       14.5609363172
  C        -0.1330184024        7.0074629253       16.7891523372
  C        -0.2118030077        9.2951761017       17.7997686198
  H         0.0185169421       10.9559887621       16.3961621396
  H        -0.7466874706        9.9210898441       -1.9679134751
  H         0.2538245847       11.1335474449       -1.1843095104
  H        -1.4563033952       11.3120044841       -1.6991066316
  S         6.0248615035       13.8484768779       -1.9926404183
  C         5.7415131619       16.5636662077       -2.4849801930
  H        -3.7230266831       13.7539355408        9.2885243813
  H        -3.3056383512       12.1810640478       10.0060201677
  C        -4.9423695162       13.1397557407       10.8291267980
  H         6.2238311675       12.4179473733       13.4739880007
  H         5.5556871339       12.5313602545       15.1015601832
  C         7.0076515326       13.9072366707       14.7519604399
  S         0.3339793533        5.1611612415       15.2622993669
  N        -0.0696895955        5.6362290061       16.7269488902
  C        -0.3276750873        7.7901429221       17.9578653060
  H        -0.3140780350        9.9199861566       18.6311715744
  C         6.3386670506       14.6797159224       -3.4930395439
  N         6.2187554283       15.9566049493       -3.5545902780
  O         5.5228192086       17.7600903658       -2.3706927129
  H        -4.8359020982       12.6079853067       11.7509945359
  H        -5.2741123341       14.1564183174       11.0089898279
  C        -5.9990355773       12.3590544115        9.9354304270
  H         6.4525153591       14.6222043806       15.3691273070
  H         7.5502156197       13.2578090466       15.4128528582
  C         7.8077020164       14.6855436264       13.7458594212
  C        -0.5516394936        7.0428018010       19.1848195595
  S         6.3392556503       13.7985795379       -5.0888850476
  C         6.2087768223       16.6979551528       -4.8569632133
  H        -5.5012795668       11.4871195848        9.5382256440
  H        -6.7690021455       11.9603080197       10.5146360780
  C        -6.5920636877       13.2047763183        8.8098698313
  H         7.6829745318       14.3051078609       12.6716329759
  H         8.8468184383       14.5878237949       13.8047702305
  C         7.5257744023       16.1835759851       13.7985364262
  H        -0.2824724520        6.0623965353       19.0753653954
  C        -0.9688778275        7.4976335110       20.3882896997
  H         6.8297568616       16.2699983293       -5.5400071706
  H         6.6068430850       17.7148266419       -4.6957595401
  C         4.8306537102       16.6885168855       -5.5273126611
  H        -6.7615715830       12.5955686230        7.8812424248
  H        -5.8268626095       13.9493488059        8.6497724884
  C        -7.8917667650       13.9256424707        9.0813984312
  H         7.9008585744       16.6541836418       12.8264297853
  H         6.4884434243       16.2979701045       13.8167935460
  C         8.2538955385       16.7827923996       14.9659142353
  S        -1.5111994009        9.0517814157       20.8100718730
  C        -1.0234392670        6.4137733401       21.4132515231
  H         4.4684277763       17.5365557827       -6.1165168609
  H         4.0746604460       16.4661518380       -4.6923572151
  H         4.6643547229       15.8046533374       -6.1566783828
  H        -8.3213574510       14.5782899044        8.3092267362
  H        -8.7135796235       13.2407299594        9.2150082915
  H        -7.6587505155       14.6217036091        9.9232921349
  H         9.3124425208       16.9032726267       14.6790672657
  H         7.8697742776       17.7522713126       15.1622709218
  H         8.1715302667       16.1528447200       15.8126156910
  C        -1.8518114520        8.3363307335       22.4106113848
  N        -1.6029009115        6.9765619102       22.4706052578
  O        -0.6665501233        5.2656267298       21.2367207229
  S        -2.4287666729        9.2363304893       23.8016457363
  C        -1.7551095772        6.1533215510       23.6437458761
  H        -2.0135192774        5.0393746571       23.3961680481
  H        -2.5390922268        6.5493847853       24.2000823819
  C        -0.4879227645        6.2883400082       24.5312880803
  H        -0.1672994773        7.2972325354       24.8676186150
  H         0.3631130467        5.7852573514       24.0666776930
  H        -0.7171723877        5.6669360670       25.4131787782
