352
i =
  H        -3.2638001605       14.2683115762       16.7232991202
  C        -3.2227815183       13.2405880323       16.7974336414
  H        -4.1591574573       12.8819342510       17.3894343986
  C        -1.9561268280       13.0921864497       17.5680858715
  C        -3.1262508022       12.6742747333       15.3988904961
  C        -2.1000870927       13.5684010294       19.1024342007
  H        -1.6909170259       12.0869647918       17.6059524164
  H        -1.0615765488       13.5789847357       17.1191450038
  H        -3.1366508687       13.5914772660       14.7432220905
  H        -2.2949174548       12.0902929478       15.1439029670
  H        -3.9924557354       12.0606858002       15.1950468163
  C        -2.5070443770       12.5042637500       20.1621278324
  H        -2.8148825259       14.3900326194       19.0123961375
  H        -1.1441742312       14.0298242593       19.4278888052
  C        -2.7313186249       13.0601721440       21.5458525839
  H        -3.4597419927       12.1167430343       19.8091314691
  H        -1.6903622774       11.7760214496       20.3157731873
  C        -1.5417982740       12.4734648314       22.4095375538
  H        -3.6885456200       12.6664433907       21.8513783605
  H        -2.7598036938       14.1748856554       21.5271084106
  C        -0.2497699954       13.3600908549       22.3814449803
  H        -1.9428787267       12.5295490133       23.4468409501
  H        -1.4129129061       11.3970453517       22.2900898358
  C         0.8954306280       12.6847501440       23.2236364630
  H         0.0590389404       13.6680646973       21.3915604962
  H        -0.5401309329       14.2756451247       22.9050233298
  C         1.2687206095       11.3474966168       22.6051914138
  C         0.4141916368       12.0688506771       24.5306064397
  C         2.1458907781       13.5634836599       23.4106802654
  C         0.9088533164       10.2705374008       23.4060336166
  C         1.6892146261       10.9534415511       21.3611237955
  C         0.4787747144       10.7441459627       24.6720358845
  C        -0.0201233018       12.7724418711       25.6305089441
  H         2.2573189798       14.1485088719       22.5331452730
  H         1.9267362999       14.3221093399       24.2010779456
  C         3.4433878736       12.8829569815       23.7028500534
  S         1.2308668763        8.7031750531       22.7015364310
  C         1.8231641876        9.5691506750       21.2318376056
  H         1.9712764540       11.8123228101       20.6393077502
  C        -0.0069880724       10.1264339996       25.8171204524
  H        -0.0628609647       13.8648183752       25.5488503256
  C        -0.4699702282       12.1185228861       26.7687658387
  H         3.9087568252       12.5275176556       22.7236075774
  H         3.3284616011       11.9926110026       24.3503784119
  C         4.4398617001       13.8720701980       24.2676701050
  C         2.3567969391        8.9274645248       20.0029050543
  C        -0.4130550114       10.7658704046       26.9360314121
  H         0.0913662863        9.0851193161       25.7696172122
  C        -0.7416235974       12.5680404795       28.0244243477
  H         5.2003248535       13.2376813061       24.7260416488
  H         4.0830042143       14.3868501151       25.1661950532
  C         5.1899802077       14.7445208409       23.2560222116
  C         2.4598053348        7.5429448267       19.6351455701
  C         2.7848981137        9.8413705433       18.9042675386
  C        -0.8791639530       10.1265244909       28.2786507501
  C        -1.0290470139       11.5018355976       28.9099564342
  S        -0.9345586614       14.1163239249       28.7034297434
  H         5.4821851905       15.6770896801       23.8115384239
  H         4.5179347221       15.0889417388       22.5176779057
  C         6.3914271205       14.1894756682       22.5515937116
  N         2.1285260155        6.4761987371       20.5372962864
  C         2.8507210804        7.1023911447       18.3935848011
  C         3.0449276380        9.3432000204       17.6033135637
  H         2.8680174459       10.9443374053       19.0113542101
  C         0.3054601238        9.3724269899       28.9913452433
  C        -2.2367857890        9.3490703920       28.1691516761
  C        -1.2964344732       12.0138056581       30.1727500582
  C        -1.3612007191       13.3673355167       30.2224180149
  H         7.1713508945       14.9110794586       22.7294344482
  H         6.6661899031       13.2112437503       22.9796173159
  C         6.1605933161       14.0657541696       21.0938663142
  S         2.3373074991        5.1350699280       19.6978661141
  N         2.9107870456        5.6780403648       18.3487400791
  C         3.0566559364        7.8903758796       17.3018803393
  H         3.2995127402       10.0742263395       16.8953975361
  H         0.5918376175        8.4807021448       28.3477773379
  H        -0.0486967260        8.9109696752       29.9227559551
  C         1.5503204429       10.1761017010       29.2829229544
  H        -2.1185059264        8.4650701062       27.4954919893
  H        -2.5498736960        8.9060084129       29.1734603716
  C        -3.4799284828       10.0787744137       27.6385680498
  H        -1.6798759361       11.3262685373       30.8873036901
  C        -1.6770240361       14.2223852246       31.4219228364
  H         5.7043975162       15.0226164570       20.8090562645
  H         5.4552036905       13.2786881199       20.9598220444
  C         7.3980216911       13.8002505823       20.3947070183
  C         3.4182307971        7.3062216059       16.0283632361
  H         1.9597464651       10.6554271356       28.3624996271
  H         1.5221558626       11.0424747294       29.9759666348
  C         2.5930048891        9.1722192818       29.7636664565
  H        -3.1664413567       10.4132201852       26.6243225078
  H        -3.6949324434       10.9908712635       28.2147592344
  C        -4.7533242867        9.0984068695       27.5823972750
  C        -1.6016191475       15.6063045072       31.5026659171
  C        -1.9902362134       13.5595282097       32.6892416300
  H         8.1498003974       14.5862883748       20.3175361015
  H         7.9109925750       12.9552600185       20.8230265765
  C         7.0763723390       13.4571785051       18.9500235920
  H         3.1907829049        6.2367453384       15.9983644814
  C         3.7372113046        7.7561885331       14.7754158902
  H         2.7596661062        8.4477250448       28.9463491971
  H         2.1911011746        8.6829022800       30.5917890685
  C         3.9342321331        9.9633802501       30.1267844046
  H        -4.4411370404        8.4498692026       26.7442726645
  H        -4.8334813561        8.4266224916       28.4765028357
  C        -6.1500223600        9.7561467689       27.3957125670
  N        -1.2543870248       16.4424405509       30.4456331482
  C        -1.7933272008       16.3355449882       32.6825083992
  C        -2.2916346906       14.3069153649       33.8915459984
  H        -2.0600317820       12.4667876645       32.7019772007
  H         6.0049632452       13.0816323822       18.7796884159
  H         7.1675906492       14.3226359437       18.2802662368
  H         7.6692971526       12.6278882848       18.5062698595
  S         4.0015805903        9.4096192844       14.4195348219
  C         3.8584702515        6.7227083663       13.7275928171
  H         3.8943918621       10.7644545223       29.3591586710
  H         3.7142847675       10.5001436746       31.0150731548
  C         5.2843438422        9.2290398230       30.1301843913
  H        -6.1872983001       10.5601266026       28.1712035062
  H        -6.9440494159        9.0716376760       27.5958111620
  C        -6.2962622370       10.5131966253       26.0386112582
  S        -1.3371718892       17.9370572029       31.0407888926
  N        -1.5100508423       17.6839470985       32.6111840096
  C        -2.2318009957       15.7507158365       33.9070800201
  H        -2.4997048646       13.7910186440       34.8010608576
  C         4.2645461928        8.6744018127       12.8488098823
  N         4.1718632151        7.3529993639       12.6539482780
  O         3.7391554492        5.5226053490       13.8434302990
  H         6.1213340752        9.8623070896       29.8676860782
  H         5.2287454337        8.4367031875       29.4218973147
  C         5.6117560276        8.6048466163       31.4716236903
  H        -5.7876203218       11.4117115941       26.0021036453
  H        -5.8500473642        9.8473430305       25.2827066677
  C        -7.7834357966       10.7715903820       25.9206270058
  C        -2.4026085559       16.5903175057       35.0513639657
  S         4.7352717846        9.6222661854       11.4142282221
  C         4.3001334326        6.6516959093       11.3597734691
  H         6.6289103504        8.9582352423       31.5820986725
  H         4.9210163427        8.8244370471       32.2923822159
  C         5.7331850669        7.0510698685       31.4484863986
  H        -7.9316689215       11.7086165699       25.3694820656
  H        -8.1687510087       10.8445171722       26.9405453766
  C        -8.5628832776        9.6656697258       25.2973577812
  H        -2.0201363053       17.5663142177       34.9240287536
  C        -2.8121659890       16.3457595416       36.3514624343
  H         5.0089464006        7.2206211893       10.7067428384
  H         4.7412209892        5.7014404464       11.5094143305
  C         2.9786816635        6.4176575576       10.7119771372
  H         4.9970968768        6.6658573672       30.7331519955
  H         5.2511584167        6.7285774108       32.3777938420
  C         7.0331809374        6.2743338794       31.3818635506
  H        -8.7658133509        9.8676838580       24.2296889066
  H        -8.0096736729        8.7180328958       25.3502054199
  C        -9.9223224506        9.4227239821       26.1618006964
  S        -3.3558165476       14.9064450638       37.1329855545
  C        -2.8128730922       17.6195761105       37.2039312769
  H         3.0086029850        5.5964814342        9.9901852158
  H         2.1876502016        6.0933105945       11.3907436858
  H         2.6480762397        7.2835001685       10.1651379631
  H         7.5898863720        6.7775367340       30.6992708768
  H         7.0060263605        5.1780732145       31.1407810696
  H         7.5443600794        6.2898979994       32.3912271933
  H       -10.3386900701       10.3086956880       26.6990046988
  H        -9.7466736469        8.5960629887       26.8768326251
  H       -10.6351726493        9.1029775430       25.4418089678
  C        -3.6534915441       15.9953498158       38.5789062369
  N        -3.4794427432       17.2854429473       38.3208555131
  O        -2.7044377459       18.7505955558       36.7696778247
  S        -4.3641543616       15.4309533257       40.0544780914
  C        -3.6207948891       18.3073500767       39.3176396108
  H        -3.9790228633       19.2392465433       38.8701098787
  H        -4.4526510662       18.0237987378       39.9197269233
  C        -2.3708831528       18.3127253158       40.1754437637
  H        -2.0789363934       19.2966657970       40.5864971916
  H        -2.5481337349       17.5375271007       40.9353379380
  H        -1.5676595937       17.9766843991       39.5596180868
  H         7.5849465008       11.2215301519        3.5370767447
  C         8.3677453052       10.4266685415        3.3890767415
  H         7.7947815785        9.5450408789        3.2763241401
  C         9.1674329504       10.3080471240        4.6471405894
  C         9.1082197483       10.6582618488        2.0861668319
  C         8.2995845965       10.4310023409        5.9196809812
  H         9.7010954968        9.3748472419        4.6450379093
  H         9.7824447395       11.2008889401        4.6261932805
  H         9.7181224050        9.7687804107        1.7472480965
  H         9.8357267311       11.4543615508        2.1015416271
  H         8.4662432963       10.8255782859        1.1855700424
  C         7.5144105072        9.1947089941        6.4285317450
  H         8.7896734897       10.9605528080        6.7111637399
  H         7.5641330808       11.0774033746        5.5546101266
  C         6.9245723578        9.5994538324        7.8060629978
  H         8.1263522625        8.3528490017        6.6319366115
  H         6.7904838997        8.7189226444        5.6809167366
  C         5.6576596414       10.4370898413        7.7657457443
  H         7.7139505000       10.0411790053        8.4971623954
  H         6.6280166528        8.6530285172        8.2953606327
  C         4.5323625946        9.6170568004        7.1545032875
  H         5.4226704992       10.6579472865        8.8319362971
  H         5.8393288020       11.4730631637        7.3404254200
  C         3.1840862058       10.3897768923        6.9684834768
  H         4.3151564108        8.7271342829        7.7754927114
  H         4.7135264996        9.3046191105        6.1573261705
  C         3.5898217413       11.7553290742        6.3092183471
  C         2.6548520045       11.0621997147        8.2048675447
  C         2.0573439885        9.6799634775        6.1511631227
  C         3.3133772006       12.8248541399        7.1516911028
  C         4.2146153917       12.1727174392        5.1165994907
  C         2.7421719307       12.4060408410        8.3471697947
  C         2.2001000634       10.3557144016        9.3771862384
  H         2.4943784573        9.4065219532        5.1767931396
  H         1.8779426994        8.6980656178        6.6944952263
  C         0.7707174178       10.5119702730        5.9624138400
  S         3.6792374296       14.3650494759        6.4159032689
  C         4.2019097267       13.5537983900        4.9781999403
  H         4.6064414904       11.4963059685        4.3776064006
  C         2.3911357552       12.9906643994        9.5615625973
  H         2.1709853031        9.2943547805        9.2397970777
  C         1.8558926868       10.8793466875       10.5728995506
  H         1.0052838233       11.5710266731        5.7641869807
  H         0.3381482620       10.5499246351        6.9106771417
  C        -0.2936852767        9.8893486135        5.0675109119
  C         4.3781934233       14.2547899588        3.6633750543
  C         1.9448198897       12.2225463800       10.6658694346
  H         2.3087860261       14.0339563246        9.7009239424
  C         1.3349188356       10.4331855460       11.7486312761
  H        -1.3238578101       10.2783598340        5.1919580525
  H        -0.3477304988        8.8143912635        5.2441067260
  C         0.0072019207       10.0059684907        3.5633525357
  C         4.3206947517       15.6406274130        3.4173873517
  C         4.6676128859       13.4008305410        2.4858847794
  C         1.4431074901       12.9069250906       11.8831002339
  C         1.1140243555       11.5396384525       12.5453323096
  S         0.9591465279        8.9148259170       12.4833604737
  H         0.9933510637        9.6367400879        3.4031718709
  H        -0.1106317100       11.1040542062        3.3602139060
  C        -1.0459149471        9.2883872168        2.7418052190
  N         4.1654285362       16.6335738469        4.3577286863
  C         4.6903010597       16.1928948423        2.2471910846
  C         4.8975484178       13.9902051175        1.2348501604
  H         4.8098831452       12.3756072349        2.5736432716
  C         0.1402809629       13.7652302851       11.7475231333
  C         2.6678447225       13.6546146577       12.4295252082
  C         0.5785796452       11.1942472786       13.8160669993
  C         0.5404616786        9.8225995187       13.9285140778
  H        -1.4190058218        8.3483323805        3.2239753205
  H        -1.8664813808       10.0243961587        2.7968986397
  C        -0.8155813757        8.8671290641        1.2559927963
  S         4.1711111292       18.1423602606        3.6957183137
  N         4.5392101372       17.6036929563        2.2335354652
  C         4.9222063094       15.4451453492        1.0652341147
  H         4.9579712880       13.3507923049        0.4095027001
  H         0.2525116009       14.7035802830       11.2494885112
  H        -0.2581341448       14.0882239230       12.7292486068
  C        -1.0259732133       12.9887876705       11.0580537739
  H         3.5596482601       13.0982331773       12.2375762888
  H         2.7565289720       14.6165267959       11.9553266828
  C         2.5856362252       13.9278270500       13.9293171419
  H         0.2952824514       11.9799304592       14.5116481763
  C         0.2709674806        9.0986597410       15.2181744136
  H        -1.5054967258        8.0801527760        0.9901989613
  H         0.1381386260        8.4691178475        1.0846748190
  C        -1.2051389450        9.8863573731        0.1867760394
  C         5.0526498320       16.1231434510       -0.1796407141
  H        -0.7033027099       12.5992512357       10.0716032420
  H        -1.3344107251       12.0935240644       11.6896685983
  C        -2.3529819454       13.7637832545       10.9498709812
  H         2.4307665624       12.9392526390       14.3807192512
  H         1.7607533455       14.6203329874       14.2176422975
  C         3.8319674955       14.5574289540       14.5336636117
  C         0.2482068983        7.7106719240       15.3717289487
  C        -0.0702181268        9.9233664490       16.4498119499
  H        -2.2674380831       10.0816374654        0.1324314909
  H        -0.8206133099       10.8558819147        0.5943173191
  C        -0.6572813635        9.5879796266       -1.2647381876
  H         4.8123919880       17.1901434329       -0.2233928357
  C         5.4271295718       15.7084968717       -1.4255964569
  H        -2.3409354023       14.6241870573       10.2333848562
  H        -2.4303800931       14.1975691081       11.9416673430
  C        -3.5895231498       12.8539032263       10.6777147322
  H         4.1768301790       15.3241782971       13.8217922047
  H         3.5674104749       15.1973407595       15.3352634015
  C         5.0106348297       13.5809594745       14.9497221541
  N         0.5194186769        6.7310848357       14.3756635209
  C        -0.0824833037        7.0801034633       16.5557381697
  C        -0.2806942684        9.2563252330       17.6450220067
  H        -0.0720661920       11.0087486446       16.5168803085
  H        -0.7536682914       10.4081620406       -2.0262968998
  H        -1.2616614553        8.7011041493       -1.5540462010
  H         0.3843393688        9.2404710642       -1.2931652541
  S         5.8416589215       14.0681266422       -1.9248546741
  C         5.5004506377       16.6586944759       -2.5451794623
  H        -3.2715995185       12.1095395686        9.8744320818
  H        -3.8188759813       12.3215161926       11.5920682155
  C        -4.9359921053       13.5887656812       10.2848723937
  H         4.7298477822       12.5989807714       14.4420133974
  H         5.0030299032       13.5088484929       16.0761923374
  C         6.3772251862       13.9843170211       14.4970241401
  S         0.4706001455        5.2253266032       15.0449469380
  N        -0.0521535531        5.6259541664       16.5067741040
  C        -0.4515806686        7.7740334078       17.6750083331
  H        -0.5024630581        9.7809464874       18.5555265933
  C         6.1862985020       14.7418260765       -3.5020442541
  N         6.0096149496       16.0849781783       -3.6472246261
  O         5.2207052889       17.8985689162       -2.4710837654
  H        -5.4938868104       13.9453676736       11.1587100929
  H        -4.6839435821       14.4687008223        9.7077430548
  C        -5.6642311513       12.7645272133        9.3468356286
  H         7.0975562604       13.1600405731       14.6794883736
  H         6.3816086778       14.1449344478       13.4091855856
  C         6.8937787524       15.2640429373       15.1812609271
  C        -0.6971598383        7.0451953069       18.8935454151
  S         6.2121027855       13.8172543590       -5.0046982392
  C         6.0883267408       16.8368586993       -4.9238249965
  H        -4.9750485158       12.2941641134        8.6525637812
  H        -6.0898288243       11.9072084216        9.8660800851
  C        -6.8292085340       13.5082828692        8.6441317967
  H         7.3465237336       15.0783411798       16.1628298023
  H         6.0790870657       16.0477987287       15.2166199361
  C         8.0296466144       16.0311523680       14.3800160032
  H        -0.3594840485        6.0384215439       18.8425144546
  C        -1.2370300666        7.4158057188       20.1942231301
  H         6.6753133853       16.3317720090       -5.6763961146
  H         6.7133822170       17.7004285632       -4.6522319107
  C         4.6075377037       17.0276725520       -5.4850965545
  H        -7.1259857866       12.8220257713        7.8881801117
  H        -6.5076793455       14.4946282072        8.2982382892
  C        -8.0093238468       13.6952004222        9.6558088197
  H         8.6652931494       16.3883528878       15.2034697992
  H         8.6810356971       15.4163798614       13.7808464440
  C         7.4321457210       17.1792649410       13.5232867780
  S        -1.8280096849        8.9186567604       20.7582538520
  C        -1.3197782047        6.2927933260       21.1742207415
  H         4.5826866097       16.6100537036       -6.5205493192
  H         4.3218447101       18.1181338282       -5.5462609405
  H         3.8459019663       16.4400030321       -4.8845664693
  H        -8.9533156628       14.2203196803        9.2398268509
  H        -8.4017956525       12.7742794827        9.9983743295
  H        -7.6422151501       14.2952476986       10.5295524244
  H         7.5514139190       18.0833171119       14.1077019290
  H         8.1182568973       17.2338659590       12.6992593352
  H         6.3909631979       17.0117723962       13.2906702987
  C        -2.1630803680        8.1192171895       22.3378839646
  N        -1.9290309037        6.7858530685       22.3115911306
  O        -0.9378406506        5.1335258754       21.0583864296
  S        -3.0716279110        8.7433581001       23.6025729558
  C        -1.9778853126        5.8842316276       23.4363496990
  H        -2.0098023345        4.8773724835       23.0607260651
  H        -2.9451499838        6.1074768248       23.9309222991
  C        -0.8389720340        6.0422041252       24.4100243219
  H        -1.0369899125        6.8280619413       25.0562066650
  H         0.2009694036        6.1480829117       24.0167532380
  H        -0.7556111962        5.1821602349       25.0762968901
