352
i =
  H        -3.5876655357       14.4216625352       15.8795851318
  C        -3.5610826458       13.3250479731       16.0049881812
  H        -4.5179417327       13.1084530083       16.4165053228
  C        -2.4070750320       13.0526778902       17.0260872531
  C        -3.2370079432       12.7708118456       14.5927129540
  C        -2.8589142254       13.2820108324       18.4136159944
  H        -2.0029750338       12.0658261517       17.0475084443
  H        -1.5093158577       13.6430226669       16.8009506363
  H        -2.9258087249       11.7403695400       14.6835100808
  H        -4.0486977848       12.7891629437       13.8555387366
  H        -2.3446234085       13.2702881197       14.1480903694
  C        -1.7182977425       13.0858435104       19.4532911103
  H        -3.6487383778       12.6252910830       18.7261838622
  H        -3.4111049383       14.1762896159       18.5509800959
  C        -2.2036230231       13.1737738791       20.8683001522
  H        -1.1410669473       12.1593568860       19.3692319884
  H        -0.9485441906       13.8979113642       19.2467764107
  C        -1.2500797983       12.5809357768       21.8612470090
  H        -3.1300202451       12.6313172028       21.0017864388
  H        -2.4186488925       14.1591606184       21.0211060906
  C         0.0148485151       13.3903118357       22.1338354648
  H        -1.8286427134       12.5489230569       22.7977284767
  H        -1.0321991323       11.5608800378       21.5786496216
  C         1.0669810804       12.7229902544       23.0780956555
  H         0.4802773303       13.7009080719       21.1542056163
  H        -0.1087261971       14.3421352172       22.5996788064
  C         1.5531812760       11.3760991237       22.3955089341
  C         0.5803067613       11.9782165155       24.2553032081
  C         2.3004130049       13.6523063771       23.4008709351
  C         1.2605929771       10.2520105736       23.1539101392
  C         1.8953627981       11.0328235753       21.1130901879
  C         0.6367126554       10.6423787409       24.3137882683
  C         0.0010514088       12.5224997109       25.3902695298
  H         2.5869457903       14.0724745977       22.4284156987
  H         1.9748342055       14.5417760079       23.8980019714
  C         3.4425870925       12.9661601766       24.0177673187
  S         1.7590765314        8.7526979257       22.4711454421
  C         2.0785171021        9.6864145287       21.0058281822
  H         1.9349459027       11.8066020188       20.4007086073
  C         0.1141835204        9.9796356791       25.4088009020
  H         0.0430675470       13.5586347415       25.4763880634
  C        -0.4660938494       11.8233208753       26.4885222770
  H         3.8177291576       12.1705622372       23.5367846380
  H         3.1019898947       12.6169340714       24.9709076123
  C         4.5878087037       13.9645162699       24.3508732229
  C         2.5473637860        8.9135137525       19.7930606594
  C        -0.3856637185       10.4947965274       26.5609858861
  H         0.3007674937        8.9577105828       25.3651780416
  C        -1.0030601949       12.2246180547       27.7125860398
  H         5.2984857822       13.4860165698       25.0594092991
  H         4.1490660009       14.7395785915       24.9972182866
  C         5.2980295715       14.4700256626       23.1493699868
  C         2.5345619417        7.5128973459       19.5281523703
  C         3.1574377205        9.7273962320       18.6403951385
  C        -0.9953909654        9.7822743892       27.8000890041
  C        -1.2343007120       11.1484098307       28.4799178942
  S        -1.3708537212       13.7023487685       28.4872755912
  H         5.7036264053       15.4402886239       23.5072918908
  H         4.5568032283       14.7706165739       22.4187949411
  C         6.4511824752       13.6524369978       22.5675946634
  N         2.2414423722        6.5776489373       20.5228296280
  C         2.7517685839        6.9478711806       18.2958362881
  C         3.5074198345        9.0817099961       17.4560695427
  H         3.3709285412       10.7860953834       18.7299627716
  C         0.0268928524        8.9905103149       28.5345455666
  C        -2.2960997225        8.9760633297       27.5072649652
  C        -1.6661423202       11.4811359067       29.7601751414
  C        -1.6809294917       12.8535349285       29.9695304815
  H         7.1718272187       14.3104549919       22.1730022321
  H         6.8964777545       13.0452921703       23.3635019389
  C         5.8743165619       12.6523554670       21.6019192248
  S         2.3212595250        5.0833194892       19.8838905199
  N         2.5114341089        5.5881597286       18.3203663179
  C         3.2106308314        7.6594089220       17.2165820341
  H         3.8903124192        9.6649849265       16.6832398997
  H         0.3824178025        8.3731289071       27.7295899537
  H        -0.3097327984        8.3384778564       29.2840400773
  C         1.2142484746        9.8115730604       29.0370357972
  H        -2.2231853828        8.2744967721       26.6744480633
  H        -2.5025606349        8.3842819895       28.3830901692
  C        -3.4740645620        9.9713615111       27.2534787692
  H        -1.9169869587       10.6916367778       30.4654262452
  C        -1.9302204395       13.6105128115       31.2659558210
  H         4.8404405007       12.4006822759       21.8952494135
  H         6.4639179626       11.8082397812       21.6828595808
  C         5.8730521461       13.0633190074       20.2075870025
  C         3.4123712335        6.9596606283       15.9742955706
  H         1.6240374950       10.2727338590       28.1611716180
  H         1.0211510277       10.5987018684       29.7983949486
  C         2.3557262459        8.9589444425       29.6145076996
  H        -3.1977395703       10.6555286090       26.4463264707
  H        -3.7182917089       10.7083747391       27.9815110527
  C        -4.8452695975        9.3579159938       26.9538073069
  C        -1.8808281265       14.9936915104       31.5500952092
  C        -2.1579788404       12.7320349414       32.4453098690
  H         5.1684845805       12.3464184866       19.7897430413
  H         5.4460962675       14.0506735469       20.0835070208
  C         7.2172183411       12.9815812964       19.4952357460
  H         3.2705815891        5.9175230203       16.1079052797
  C         3.7700166935        7.4320027589       14.7297888419
  H         2.5804654943        8.0698582784       29.1221478696
  H         1.9670342371        8.5863636878       30.5154089896
  C         3.6688540430        9.6587775090       30.0148830717
  H        -4.9316593476        8.7937959871       26.0474230078
  H        -4.9653485532        8.5502472850       27.6393432493
  C        -5.9320524992       10.4620648858       26.9088781469
  N        -1.6715744575       15.9770407560       30.5726429289
  C        -2.2417005105       15.5131897272       32.7429629749
  C        -2.4022391084       13.2840790478       33.7031503685
  H        -2.0599024910       11.6737320217       32.4106069267
  H         7.0469000063       12.2373704466       18.6957871896
  H         7.4980856511       13.9466964687       18.9944408130
  H         7.9968310158       12.7367741300       20.2134546240
  S         4.1608065071        9.0709433361       14.2067915772
  C         3.7816433660        6.4261140078       13.6215983807
  H         3.6999274133       10.5447234110       29.3420234855
  H         3.5872043558       10.0308732324       30.9730494547
  C         4.9633623812        8.9367883625       29.8339924218
  H        -5.7232217663       11.1730264137       26.1001076324
  H        -6.0227982939       10.9679724639       27.8380630064
  C        -7.2558932619        9.8510148392       26.5587076252
  S        -1.9255688549       17.4038896808       31.2787602954
  N        -2.3391110102       16.9028759822       32.6918823404
  C        -2.4434378029       14.7634242829       33.9259896556
  H        -2.5251910638       12.5616270931       34.5113279692
  C         4.2154560956        8.3745917243       12.5871557590
  N         4.1476663281        7.0007553294       12.4893590909
  O         3.6421022375        5.2436159381       13.8633490181
  H         5.8870378543        9.5419067343       30.0350767572
  H         5.0218689009        8.7171429029       28.8076879582
  C         5.0880052840        7.6115217876       30.6209052448
  H        -7.1497827626        8.8403980378       26.2664238431
  H        -7.9304840720        9.8597155318       27.3194718765
  C        -7.9505591233       10.4849679739       25.3698699803
  C        -2.8566731224       15.4529659394       35.0992841672
  S         4.5750404525        9.3476327144       11.1478693770
  C         4.1814416079        6.2177805886       11.2479300215
  H         5.5165036720        7.7336740980       31.5839491638
  H         4.1074837814        7.2422596921       31.0215511283
  C         5.7102104540        6.5467944405       29.8045902565
  H        -7.2230831310       10.7915351940       24.6070996520
  H        -8.4971104825       11.4431025320       25.7312321476
  C        -8.9612604379        9.5856779937       24.7097693132
  H        -2.7379072614       16.5392204472       35.0727099508
  C        -3.3274869512       15.0157218871       36.3157066912
  H         4.9298778846        6.5834093438       10.6356446802
  H         4.4840462679        5.1988992091       11.5841743926
  C         2.8166722695        6.3395105696       10.6134797160
  H         6.3637400346        6.9147201129       29.0191244923
  H         4.9725873210        6.0740323910       29.0707359166
  C         6.5308585359        5.4353677672       30.5844218563
  H        -9.1876718108       10.0292046935       23.7539267029
  H        -8.5599016231        8.6381018598       24.4600391808
  C       -10.1452251729        9.4048738977       25.6701468131
  S        -3.8875701405       13.4319162657       36.6891759970
  C        -3.5031996952       16.0229147868       37.4201080116
  H         2.6517302179        5.6313177522        9.7785666107
  H         2.0702731801        6.1982575468       11.4069791939
  H         2.8706151181        7.3844000091       10.2746968710
  H         7.1094497263        5.8132759481       31.3808721817
  H         7.2578445860        4.9817623999       29.9003423221
  H         5.8246610736        4.6414546495       30.9033807669
  H       -11.0126179023        9.1206544859       25.0812930370
  H       -10.5033183234       10.3013869095       26.0957397666
  H        -9.9521148406        8.6818487471       26.5082884464
  C        -4.2860534702       14.0594327571       38.2866342348
  N        -4.0982815555       15.3874976700       38.4709937827
  O        -3.3707068657       17.2113619192       37.2064090250
  S        -5.2267020220       13.1569587159       39.5169885278
  C        -4.3419787914       16.1623871942       39.7114787460
  H        -4.4450081192       17.2177794798       39.5070792518
  H        -5.1132075259       15.7198097309       40.2611671550
  C        -3.0769896275       15.9806863080       40.6210896834
  H        -3.3718283573       15.8007993683       41.6545234855
  H        -2.4406242383       15.1259850737       40.2769171140
  H        -2.6459940801       16.9635849450       40.7774637027
  H         6.9200374239       11.1042685812        3.2305726454
  C         7.5984190946       10.1973206136        3.1872475202
  H         6.9270886418        9.3536309365        3.1760401541
  C         8.5509291478       10.2262855529        4.3613635269
  C         8.4280767806       10.2251807297        1.8520622499
  C         7.8646937945       10.5599515211        5.7032933072
  H         9.0578805626        9.3056656843        4.4195224253
  H         9.3101109493       10.9655090723        4.1511131491
  H         9.0638005145        9.2836836774        1.9301870399
  H         9.0989590225       11.0270952138        1.6822843099
  H         7.7721514912       10.2812465021        0.9880285585
  C         7.4106888260        9.3285115486        6.4218570821
  H         8.5648360224       11.2013044145        6.3213535751
  H         7.0066955211       11.1966707958        5.6035290063
  C         6.6839559442        9.7134576294        7.6788943325
  H         8.3060329879        8.7284589531        6.7222925941
  H         6.8188016009        8.7161439840        5.7419309869
  C         5.3413802194       10.4332758419        7.5651601823
  H         7.2585512440       10.1196415977        8.4437359344
  H         6.5395251865        8.7367235549        8.0991540538
  C         4.2651142823        9.5889256941        6.8108668073
  H         4.9522949781       10.6699804101        8.5597575552
  H         5.5921035145       11.4288655232        7.1520235622
  C         2.8669207841       10.2635593435        6.7353095113
  H         4.1338287565        8.6660586291        7.4151253784
  H         4.5233519756        9.2901088701        5.8165348907
  C         3.2025236133       11.6111022278        6.0594549232
  C         2.3860244440       10.9966419759        7.9797617836
  C         1.8193676289        9.4030327285        5.9912218703
  C         2.7800543962       12.6968482872        6.7972422547
  C         3.7716839124       12.0767828436        4.8691873530
  C         2.3695703512       12.2873688803        8.0518278781
  C         2.0809431631       10.3800384308        9.2101606916
  H         2.3677967153        8.6834685292        5.3639075915
  H         1.2600480912        8.6764770743        6.5857886857
  C         0.8319352729       10.1733456102        5.0849517188
  S         3.0969632438       14.2538571256        6.1294758042
  C         3.6330558892       13.4274113550        4.7188289643
  H         4.1041423854       11.4197890571        4.1269482529
  C         2.1066811758       12.8981737030        9.2690376359
  H         2.1676852687        9.3173853091        9.2277151718
  C         1.7321748744       10.9344064457       10.4032668279
  H         1.4918389643       10.8207406364        4.4307092788
  H         0.3130979171       10.9607687312        5.6621661118
  C        -0.1005956480        9.2980386889        4.2418253504
  C         4.0816638600       14.0982331620        3.4922663747
  C         1.7584191930       12.2878828772       10.4947039959
  H         2.2500672508       13.9734163587        9.3682094221
  C         1.2944927491       10.5002174884       11.6270226253
  H        -0.7671916560        8.7994956154        4.9505654665
  H         0.4950096755        8.6788180256        3.6176752391
  C        -0.9896092946       10.0295574977        3.2999782322
  C         3.9892981992       15.4376106578        3.1877309784
  C         4.6788693600       13.3076714149        2.3702646708
  C         1.4142566573       12.9824608945       11.7948249484
  C         1.0775297212       11.5936908302       12.4896395271
  S         1.0500731609        9.0412707029       12.3938878943
  H        -0.4414896681       10.7266030178        2.6553245669
  H        -1.6305323467       10.7435672885        3.8879431180
  C        -1.7665726713        9.0741146669        2.4271585943
  N         3.6110428240       16.3792764994        4.1151351983
  C         4.3276185327       16.0406447401        1.9866825971
  C         5.1247016077       13.8899957050        1.1522318598
  H         4.7981572943       12.1992581692        2.4538785460
  C         0.0883466383       13.7870068087       11.6008853380
  C         2.5170027619       13.8047769514       12.4355829013
  C         0.5644535528       11.1592029917       13.8001410676
  C         0.4969790645        9.8009046394       13.8712895320
  H        -2.2890446861        8.3435914985        3.0518501708
  H        -2.5403959807        9.5865486404        1.9393564666
  C        -0.9037393569        8.3634191657        1.4170472117
  S         3.5790891347       17.8747862274        3.3970312554
  N         4.2126830314       17.4006029916        1.9212175749
  C         4.8996228433       15.3541326120        0.9421029947
  H         5.6223979673       13.2441332675        0.4136177529
  H         0.2569680271       14.7970272088       11.1452123882
  H        -0.2229648665       13.9115456417       12.5936603495
  C        -1.0239776516       12.9143144048       10.9005730820
  H         2.8308470565       14.6603196949       11.8107639294
  H         2.2457857387       14.2083497192       13.3674702480
  C         3.7720661488       12.9911217394       12.9522329411
  H         0.2917929875       11.9375635172       14.5029029303
  C         0.1925206095        8.9826451956       15.1382342607
  H        -1.6681976811        7.7182067001        0.9125165103
  H        -0.1350511762        7.8505455392        1.9570394284
  C        -0.4135961246        9.3898978540        0.4203898098
  C         5.3006176821       16.0481136884       -0.2017058387
  H        -0.7013866049       12.3576364273       10.0302046329
  H        -1.2654711807       12.0604365889       11.5027637393
  C        -2.2933570651       13.7610526451       10.6627839890
  H         4.4024038524       12.3723123506       12.2477171112
  H         3.4310000961       12.1835914179       13.6991743358
  C         4.7333518490       14.1212457635       13.5162419210
  C         0.1787493490        7.5548781585       15.1807925831
  C         0.0995046317        9.7321493847       16.3556252304
  H        -1.1203621520       10.2326771807        0.2932334378
  H         0.4564383925        9.8175913636        0.8831048919
  C        -0.1347142790        8.8404463432       -0.9480685590
  H         5.5263346870       17.1423306148       -0.0648314211
  C         5.5443386569       15.6290039853       -1.4977084887
  H        -2.0967549302       14.6126485490        9.9203683787
  H        -2.5637624837       14.1715088503       11.6228098431
  C        -3.2885687528       12.8568321034       10.0597597211
  H         5.3449882671       14.7375373967       12.8464977259
  H         4.0801994837       14.8125879367       14.1086224859
  C         5.7401338503       13.6121815091       14.4997441015
  N         0.4418720324        6.7122245995       14.1285422784
  C        -0.0552283854        6.8952307650       16.3701588443
  C        -0.1527009610        9.0839607641       17.5665925401
  H         0.2669162464       10.8261139613       16.3649773307
  H        -0.6012767017        9.6358910970       -1.5652915571
  H        -0.5652838934        7.8276599369       -1.1746718550
  H         0.9986319711        8.8265750194       -1.0967340711
  S         5.5304319720       14.0211108225       -2.1016712368
  C         5.7895878459       16.6464073568       -2.5413218414
  H        -2.9743525350       12.6434745102        8.9631694876
  H        -3.3430535827       11.9291398329       10.6607422870
  C        -4.7202857539       13.3904436464       10.1066170594
  H         6.1349555783       12.7253738782       14.0883289330
  H         5.2031220706       13.2390142416       15.3630505249
  C         6.9054678496       14.7130862785       14.7476982487
  S         0.2651151930        5.2069530161       14.7176388013
  N        -0.2406899495        5.4983407456       16.2089293428
  C        -0.2620769111        7.5677830828       17.5611150633
  H        -0.2761837706        9.6702322260       18.4406438441
  C         5.9241760208       14.7055352959       -3.6775015094
  N         5.9246166338       16.0691028644       -3.7402287834
  O         5.6165755401       17.8434800325       -2.2977256437
  H        -5.0728740610       13.6700558540       11.1538420302
  H        -4.8305090140       14.4171097318        9.6587601456
  C        -5.7096802433       12.5397496868        9.3327809337
  H         7.5511933706       14.3997899166       15.6615991530
  H         7.5482353843       14.8630589962       13.8984602903
  C         6.3384319064       16.0836759009       15.0422244710
  C        -0.6657178375        6.7974599102       18.6989972834
  S         6.2079750371       13.6170844778       -5.0342489566
  C         6.0625638939       16.8515918404       -5.0194621702
  H        -5.2100814785       12.2394363379        8.4351686767
  H        -5.9464165313       11.6522524004        9.8872449045
  C        -7.0079668541       13.2933814327        9.1400251755
  H         5.5674100915       15.8544151204       15.8293078277
  H         5.8660577754       16.5181864625       14.1760686307
  C         7.5173051658       17.0357050811       15.4799567584
  H        -0.4984288907        5.7158079630       18.5605959877
  C        -1.1919847471        7.1806747290       19.9093166917
  H         6.6408214673       16.2626199271       -5.6598207574
  H         6.6667009324       17.7421377616       -4.8885714531
  C         4.6508096066       16.9950291471       -5.6222977941
  H        -7.5311200101       12.9358575839        8.2166994562
  H        -6.8714676530       14.3541132228        8.8709717416
  C        -8.0288822295       13.0113361919       10.2585643403
  H         7.1012473597       17.9975773486       15.6822947102
  H         8.0210940506       16.6349736219       16.3934339734
  C         8.5346267114       17.3427639171       14.4116769289
  S        -1.7986209610        8.6615446700       20.4823799967
  C        -1.2812789069        6.1010934474       20.9268383520
  H         4.6001992899       17.6812619326       -6.4571086414
  H         3.8761442691       17.3304193420       -4.9332079262
  H         4.2039679367       16.1058501487       -6.1753673720
  H        -8.9060408210       13.5865823459       10.0720195256
  H        -8.3537852060       12.0182842755       10.3183810096
  H        -7.5762809714       13.1237762998       11.1975796800
  H         8.0091359320       17.5962735507       13.4909988155
  H         9.1257731868       18.2632956855       14.5667596607
  H         9.2397155561       16.5700917032       14.4333174470
  C        -2.1177328177        7.8561886574       22.0650780811
  N        -1.8408799178        6.5059195450       22.0552049245
  O        -0.8742912505        4.9117688487       20.7572592758
  S        -2.6281104992        8.6445921578       23.5854446368
  C        -1.9078645949        5.5655787765       23.2562231709
  H        -1.8372559110        4.5521793541       22.8650822205
  H        -2.8151617215        5.7622448628       23.7986982091
  C        -0.6891398412        5.9355359353       24.1572266545
  H         0.2274349504        5.7087528453       23.5716471721
  H        -0.6940467418        5.1829058032       24.9059192759
  H        -0.6365299066        6.9857042467       24.4799495246
