352
i =
  H        -3.5895307740       14.7557059491       15.9599313963
  C        -3.2709396465       13.7017422572       16.1448335959
  H        -4.2365455539       13.2164742691       16.4671502912
  C        -2.2111341753       13.6492617772       17.3831081353
  C        -2.7496405057       13.1981240515       14.8640294892
  C        -2.7542902051       14.0217347864       18.7693691477
  H        -1.9865419566       12.6048126098       17.4104245644
  H        -1.2707967355       14.2104313836       17.1012979898
  H        -2.2179830833       12.2185835923       14.9340155605
  H        -3.6564420166       13.1652205810       14.2497875775
  H        -1.9993217764       13.8267726765       14.4134923490
  C        -1.7532021786       14.1006311072       19.8862452552
  H        -3.6201123650       13.3942501054       19.0478277014
  H        -3.2165910492       14.9647262947       18.7513143841
  C        -2.3400812939       13.8337429159       21.2578666760
  H        -0.9637632655       13.3312349375       19.7907613412
  H        -1.2276296694       15.0690349063       19.8587882069
  C        -1.4570004849       13.0472251463       22.2796584257
  H        -3.3154754029       13.3979041216       21.1381392299
  H        -2.6292685979       14.7577377711       21.7630071356
  C        -0.2559557574       13.8152818395       22.7874826012
  H        -1.9717195151       12.6803785470       23.1479849687
  H        -1.0746104730       12.1857775624       21.7179860460
  C         0.8879624194       13.0587873436       23.5498656876
  H         0.1421913216       14.3783415971       21.9293332263
  H        -0.7602769765       14.6097722902       23.4664047744
  C         1.2076913888       11.7614833057       22.8054935675
  C         0.4399872551       12.3594890675       24.7670206277
  C         2.1618832812       13.9505549590       23.8770348267
  C         1.0288361490       10.6749114020       23.6095309602
  C         1.6909475927       11.4932533390       21.5478563875
  C         0.5944723806       11.0373533572       24.8918905016
  C        -0.0178012225       12.9250435820       25.9770490222
  H         2.2829794799       14.5700481507       23.0414879276
  H         1.8246877965       14.6124449875       24.6648594820
  C         3.3729509079       13.0189241323       24.1791912464
  S         1.5113275125        9.2397506870       22.8015760813
  C         1.9814464670       10.1630565042       21.4186144361
  H         1.8433081062       12.3287214952       20.9222558577
  C         0.1747794737       10.3239330419       25.9681042701
  H        -0.0496373229       14.0095951966       25.9149686077
  C        -0.4264763928       12.2221040644       27.0672535093
  H         3.6169821082       12.3923978578       23.3713477486
  H         3.2101095213       12.3630642781       24.9659757013
  C         4.5753761780       13.8680519303       24.6366233243
  C         2.4417146874        9.5184359104       20.1201688099
  C        -0.3324622946       10.8991571127       27.1322652975
  H         0.1620664642        9.1977061803       25.9397096861
  C        -0.8753475640       12.5893455851       28.2622987465
  H         5.2126441104       13.1255823185       25.1551218858
  H         4.3318759143       14.6527083509       25.3189029920
  C         5.3618461890       14.4109308283       23.4654012502
  C         2.4703032596        8.1310587889       19.8438380615
  C         2.8161136982       10.4163313381       18.9898584793
  C        -0.8346997844       10.1436185498       28.3165893884
  C        -1.0410045128       11.4477877536       29.0719592386
  S        -1.2254391322       14.1121238996       29.0428435296
  H         6.2174992422       14.9484185339       23.9006215640
  H         4.9738847796       15.2004535349       22.8938450440
  C         5.9819896166       13.3042975764       22.5966969106
  N         2.1795356285        7.0983429287       20.7611996078
  C         2.8493408743        7.5805303760       18.6906450329
  C         3.1446167692        9.8414427041       17.7533140722
  H         2.7134504314       11.4471265200       19.1357528758
  C         0.1776220335        9.1271938863       28.9165946648
  C        -2.2262287352        9.4134539682       28.0073962828
  C        -1.5201251966       11.8376377988       30.3436033288
  C        -1.6804281088       13.1782678323       30.4969564409
  H         7.0490784521       13.5841640658       22.5785579312
  H         5.9896153040       12.3223412156       23.0663954493
  C         5.2562029429       13.2169645759       21.1907766937
  S         2.4850056933        5.6647739375       20.0981731130
  N         2.7705811148        6.1912218585       18.5974964552
  C         3.1727226313        8.3570043537       17.5478630246
  H         3.4513704109       10.5483969457       16.9606856660
  H         0.4994671396        8.3318869777       28.2494121399
  H        -0.3427098707        8.6286868762       29.7130147109
  C         1.3218228360        9.8564459765       29.5440100318
  H        -2.0662165728        8.4956026470       27.2473515957
  H        -2.5491349375        8.8813702833       28.9092989348
  C        -3.2675507574       10.3440587517       27.4097954301
  H        -1.6412767466       11.0723434180       31.0591536612
  C        -1.8977743998       13.9398232645       31.7924259687
  H         4.3974472586       13.9379944459       21.2453795127
  H         4.7924041847       12.2435975541       21.1243896725
  C         6.1832371121       13.4695170479       19.9722368747
  C         3.4379603323        7.7028508342       16.2388567124
  H         1.7876474918       10.4664379656       28.7703550062
  H         1.3363091112       10.5042538505       30.4175179668
  C         2.3989547734        8.7938860101       29.8390071754
  H        -3.0821497950       10.7685577985       26.3700705956
  H        -3.6085862842       11.1358515267       28.0775545280
  C        -4.5342016371        9.5949882249       27.0959532309
  C        -1.8785854749       15.3850651768       31.8475964611
  C        -1.9064767011       13.2941532713       33.0683163185
  H         6.6781787952       14.4399078983       20.1997396131
  H         6.8973169222       12.6494411972       19.9699633562
  C         5.4157254681       13.4603483247       18.6670826387
  H         3.6117322851        6.6496264521       16.3181962938
  C         3.7314052971        8.1792025171       15.0132466056
  H         2.7625058683        8.4639196182       28.8817354229
  H         1.8813241283        8.0109871365       30.3865190598
  C         3.5969783977        9.4372259204       30.6631229042
  H        -4.2640466272        8.8260281177       26.3211995980
  H        -5.0146094918        9.1567490933       27.9949305508
  C        -5.6147583083       10.4552184075       26.5524779805
  N        -1.6483883246       16.2900379151       30.7558743918
  C        -2.2127246661       16.1191693109       32.9485315857
  C        -2.2189534023       13.9697664908       34.1552688512
  H        -1.6683266167       12.2680514816       33.1107123077
  H         4.4160499451       13.9296428009       18.7180493356
  H         5.9810064583       14.0648177544       17.9466948735
  H         5.2197337501       12.4390423797       18.3743607534
  S         3.9402827919        9.8408389446       14.5436288558
  C         3.6799385628        7.1845791337       13.8716309511
  H         3.8556305458       10.4191974779       30.4741812597
  H         3.1087192455        9.5320654478       31.7036344274
  C         4.9416561069        8.6349405007       30.5771375843
  H        -5.2608551056       10.7142313190       25.5979381137
  H        -5.6684856230       11.3650138008       27.1258460532
  C        -6.9564687232        9.8147918762       26.3984754689
  S        -1.6101222491       17.7979123638       31.2838292757
  N        -2.2072850549       17.4893906580       32.7453544879
  C        -2.4372832797       15.4743784821       34.1528729195
  H        -2.3692093315       13.3895227283       34.9984692445
  C         4.0671559408        9.1604447108       12.8907736696
  N         4.0554688916        7.8174576641       12.7938896001
  O         3.4860142946        5.9901832020       14.0615857723
  H         5.8670081553        9.2056130336       30.5591542361
  H         4.8587979651        8.2736353641       29.5440566642
  C         4.9957536038        7.5130714974       31.6433835283
  H        -6.6443670616        8.8630450042       25.8126916882
  H        -7.2003108853        9.7010868316       27.4411990507
  C        -7.9327920276       10.5341294879       25.4854573144
  C        -2.7264570990       16.2711484056       35.2624346720
  S         4.4488679685       10.0846424596       11.4371755761
  C         4.1818594812        7.0736747915       11.5474062596
  H         4.7838448743        7.8684202217       32.6238858523
  H         4.3009800644        6.6741489979       31.4643905054
  C         6.4248562447        6.8909274139       31.6415770158
  H        -7.5025179789       10.8463859829       24.5366116548
  H        -8.1684391723       11.4604709115       26.0650519090
  C        -9.1765321191        9.6381387642       25.1599087983
  H        -2.5509330251       17.2879165335       35.1325025795
  C        -3.1150721098       16.0007439974       36.5631430413
  H         4.8940458985        7.5297597077       10.8967113220
  H         4.4883352737        6.0464846498       11.8171930497
  C         2.8414581540        6.8746980376       10.8256458573
  H         6.3187253658        5.8867733598       32.0855526828
  H         7.0268713136        7.5497954049       32.2567612740
  C         7.0137716332        6.5572834089       30.2704655318
  H        -9.7344430389       10.1406974785       24.3754582340
  H        -8.8946600225        8.6608349269       24.7877001584
  C       -10.1323233989        9.4861733628       26.2708093093
  S        -3.4666711695       14.4455077624       37.2942788608
  C        -3.3001031604       17.1610940588       37.5142995470
  H         2.5779623172        7.6204913966       10.1279562377
  H         2.8913477863        5.8821992238       10.3836891331
  H         1.9934093060        6.8752284987       11.6022373792
  H         8.0003287395        6.1693581126       30.4882143359
  H         6.9407486476        7.3249913578       29.4819410870
  H         6.3868683824        5.8378111453       29.7530106000
  H        -9.8907047374        8.5751334894       26.8804699809
  H       -11.1664990962        9.4140623931       25.8925858170
  H       -10.0665732137       10.3821212871       26.8965635180
  C        -3.7504322336       15.3271064291       38.8116212959
  N        -3.7651867691       16.6736961254       38.6868847632
  O        -3.1603415900       18.2917311814       37.1680141256
  S        -4.7268765379       14.7475074390       40.1767477182
  C        -4.0234048260       17.5658458075       39.8599300929
  H        -4.2428658656       18.5125426120       39.4254190269
  H        -4.8813614615       17.4243222394       40.5106581143
  C        -2.8276051429       17.7285310487       40.7935607344
  H        -2.6929218368       16.7600520406       41.3560136301
  H        -1.9106385539       17.9368763846       40.2386686142
  H        -2.9620544053       18.5027194423       41.6107611789
  H         7.1779238978       11.3698155866        3.5768097055
  C         7.6314281369       10.3908344188        3.4787214500
  H         6.9026363199        9.6545366247        3.6554090893
  C         8.6587988733       10.2769205329        4.5087993161
  C         8.1544726906       10.0224449535        2.0791670651
  C         8.0314438886       10.5960538786        5.9341573774
  H         8.8859030557        9.1870603873        4.4468372761
  H         9.4328934625       11.0308207639        4.2185927132
  H         7.4671838642       10.4644912517        1.3567959641
  H         8.0755716221        8.9416948842        2.1155475816
  H         9.1657680528       10.3241445042        1.8319230065
  C         7.2879660910        9.3862823707        6.4670660086
  H         8.8491152631       10.8571389177        6.5622885624
  H         7.3808284296       11.5050313066        5.9111977810
  C         6.6920004915        9.6219421791        7.8638228956
  H         7.9938613504        8.5520531861        6.6049019991
  H         6.4416350740        9.1831344843        5.7601820980
  C         5.4595828019       10.4714697992        7.8147215769
  H         7.4425963624       10.1277010946        8.4480899621
  H         6.5093334545        8.6778336715        8.3774777439
  C         4.1703794892        9.8243105841        7.3466712025
  H         5.2526368525       10.9351104936        8.7685270114
  H         5.8621707580       11.3134561249        7.2841680544
  C         2.8893127697       10.7739974056        7.1706131984
  H         3.9868326451        9.0128791842        8.0556040866
  H         4.3153849561        9.2277786542        6.4701961923
  C         3.3796523785       12.1146561456        6.5651151588
  C         2.4008314928       11.4796773134        8.4342040241
  C         1.7579476854       10.1247289955        6.3020682209
  C         3.1057859243       13.2274586101        7.3674854950
  C         3.8553626462       12.5111263864        5.3415408246
  C         2.5938745469       12.7948850503        8.5776878006
  C         1.7998306563       10.9185557899        9.5622336209
  H         2.2261502888        9.6025279867        5.4137309323
  H         1.4697971223        9.3000900606        6.9628238944
  C         0.4654568133       10.9219921287        6.0651631441
  S         3.4978777428       14.7426863399        6.6521925679
  C         3.9689159925       13.8729977018        5.2199293539
  H         3.9912308217       11.7080276068        4.6397570732
  C         2.1446016246       13.4325621238        9.7214056674
  H         1.6596282499        9.8396554495        9.5665316256
  C         1.4045528211       11.5405170352       10.6909841736
  H         0.8973698801       11.7747906545        5.4863332171
  H        -0.0226800818       11.2245948990        6.9180645711
  C        -0.5592818532       10.2528479695        5.1214971517
  C         4.3346432987       14.5344160052        3.8962473847
  C         1.5194882454       12.8669199739       10.8388946436
  H         2.2726084566       14.4937045492        9.7262726051
  C         0.9375358476       11.1153563409       11.8819941764
  H        -1.3465860037       11.0295403849        5.1477777498
  H        -0.9372257162        9.3609473628        5.6861920717
  C        -0.0969558055       10.0056568198        3.6636826515
  C         4.2002645591       15.8531262160        3.6168712110
  C         4.7842868258       13.6088950563        2.8460278368
  C         0.9865443074       13.5353799517       11.9878650381
  C         0.7946370192       12.1990002437       12.7436969093
  S         0.8054247992        9.6219650254       12.6482776070
  H         0.5057960034        9.1440283708        3.6241836071
  H         0.4705670617       10.7858577001        3.2785203282
  C        -1.2352242809        9.9585609248        2.6747776319
  N         3.7989779228       16.8322925210        4.5692118311
  C         4.4798221178       16.3136517734        2.3323652774
  C         4.9802477808       14.0412467031        1.5343864330
  H         4.8073805280       12.5437527758        2.9806633763
  C        -0.3021118918       14.2822144529       11.7262993947
  C         2.1070230337       14.4742781308       12.6469031634
  C         0.2899265024       11.7409009948       13.9770398940
  C         0.4212917193       10.3705717731       14.0933097834
  H        -1.6645915220        8.9503469311        2.8211775025
  H        -2.0002947090       10.6279826915        2.9816006634
  C        -0.7368286060       10.1149202990        1.2102852823
  S         4.0137572362       18.2529702864        3.8133816069
  N         4.4007893971       17.6808706596        2.3079758083
  C         4.7254029781       15.4877764506        1.2040616975
  H         5.2613259175       13.2745961471        0.8186337677
  H        -0.0263423122       15.0882679150       11.1274658537
  H        -0.6258549669       14.6823483660       12.6818817197
  C        -1.4352410308       13.5180323553       11.0384031779
  H         2.4276097468       15.2665644501       11.9703414823
  H         1.5198012598       15.0548714596       13.4158847092
  C         3.2197052583       13.6654858297       13.2473900492
  H         0.0228220443       12.5702491158       14.6850638704
  C         0.0963108550        9.6035215095       15.3062078825
  H         0.2574021503        9.6326711376        1.1354789375
  H        -0.6845520039       11.1824793961        0.9917408660
  C        -1.7752622613        9.6327811607        0.2601026460
  C         4.8597146216       16.0221570916       -0.1088892250
  H        -0.9572416027       13.1616707066       10.0928984030
  H        -1.7353123581       12.6464518727       11.6037600800
  C        -2.6816064128       14.3824558917       10.7913493556
  H         3.4915761920       12.8999924238       12.5946726769
  H         2.8280264232       13.1764453171       14.1139311876
  C         4.3278457793       14.5971253484       13.6720397993
  C         0.2694123800        8.2022019204       15.4715843611
  C        -0.1847658912       10.2761599821       16.5886420423
  H        -1.9215444497        8.5219135344        0.4596586079
  H        -2.7475637630       10.1049874389        0.4456078496
  C        -1.2398006480        9.9687102428       -1.1757649712
  H         4.6180101631       17.0928066371       -0.1659028461
  C         5.1303737250       15.5121244746       -1.3241959157
  H        -2.3775794716       15.2246604486       10.1975812123
  H        -3.0593361545       14.7103156484       11.7227807227
  C        -3.7817879307       13.4870268346       10.1937425579
  H         4.7715597214       14.9656810091       12.7568434004
  H         3.8880732649       15.3755305388       14.2764898582
  C         5.4480220922       13.9003512378       14.4370637145
  N         0.3367498977        7.3315384226       14.3641424053
  C        -0.0570551023        7.5083655201       16.6437653095
  C        -0.5015711992        9.5460534097       17.7160999984
  H        -0.3048304601       11.3107174467       16.7040842410
  H        -2.0519373023        9.9360099657       -1.8487135080
  H        -0.4466036882        9.4502201566       -1.5668702134
  H        -0.6988906579       10.8913181683       -1.1144321708
  S         5.5050462410       13.8777542592       -1.6924578985
  C         5.2195109003       16.4261602060       -2.4718069150
  H        -3.7660911008       13.7555221602        9.1586120414
  H        -3.4403535070       12.5100320999       10.2954794944
  C        -5.1072939571       13.5665226076       10.9133187367
  H         5.3783602586       12.8396789414       14.4067633706
  H         5.4890236081       14.1125638269       15.5066492075
  C         6.8804550801       14.1480166024       13.7922650233
  S         0.3904041599        5.8296689402       14.8920395829
  N         0.1719851629        6.1820520344       16.4502401213
  C        -0.4624256475        8.1487350971       17.8558056901
  H        -0.5813737571       10.1538477568       18.5925021220
  C         5.8749419893       14.4546509899       -3.3465322030
  N         5.6187544621       15.7351130687       -3.5860158525
  O         5.1548432466       17.6129542057       -2.4950660521
  H        -5.0706071996       13.1294831350       11.8894108767
  H        -5.2455408722       14.6571592544       11.0028711982
  C        -6.2430119545       12.9659782181       10.1140606320
  H         7.6220438937       13.4690427056       14.2107227358
  H         6.8162997464       13.9062127796       12.7714640623
  C         7.2669582885       15.6350962830       13.9116618766
  C        -0.7558657501        7.4078249331       19.0438076956
  S         6.2269370657       13.3957851953       -4.7065028668
  C         5.7309467921       16.4660315649       -4.8851793128
  H        -5.8925977665       12.1164707911        9.5062997192
  H        -6.9699564758       12.5507122821       10.8297935422
  C        -7.0690015486       13.9300073199        9.2065734397
  H         6.8036965321       16.2314321188       13.1471889229
  H         8.3423456035       15.6373063114       13.6206563951
  C         6.9113747634       16.3498419750       15.2345613681
  H        -0.7000928758        6.3631899245       18.9168331302
  C        -1.2983501513        7.7571338296       20.2563690309
  H         6.5553364086       16.0207545189       -5.4913160079
  H         6.0497019213       17.4655555639       -4.7854180481
  C         4.3433705703       16.4597894334       -5.6901944048
  H        -7.4392908903       13.4219336818        8.2377811173
  H        -6.4841947795       14.8080150105        8.8303843552
  C        -8.5079779465       14.1873932831        9.8442189257
  H         5.8611600819       16.4729352108       15.1272348018
  H         7.2988451402       15.6564108185       16.0057888202
  C         7.6461408812       17.6569473832       15.3635168859
  S        -1.7514535777        9.3024403972       20.8446180733
  C        -1.4264900744        6.6624243414       21.2367423065
  H         4.4406875092       16.6371751113       -6.7949610032
  H         3.7218473644       17.2187089234       -5.2591222379
  H         3.9402070904       15.5199362378       -5.6485975516
  H        -9.0000252523       13.2598959420       10.1771574424
  H        -8.3918390906       14.8169173911       10.6992762019
  H        -9.1495460124       14.6647698323        9.0785080423
  H         8.5288695061       17.6545597586       15.9078614125
  H         7.9182664302       17.8846594797       14.3235452442
  H         6.9850817626       18.5010114324       15.6348006490
  C        -2.1920651285        8.4424963902       22.3382287126
  N        -1.9424146509        7.1630265143       22.3522709041
  O        -1.2015394261        5.4610255163       21.0711486282
  S        -3.2608431619        9.0906116386       23.6397595300
  C        -2.1672671263        6.3155800975       23.5004836325
  H        -2.3589272378        5.2760001093       23.1675979775
  H        -3.0692741960        6.5267640050       24.0624774245
  C        -0.9755148944        6.3936358367       24.4608240462
  H        -1.1526527469        7.0589103962       25.3035579279
  H        -0.1109643110        6.8755637139       23.9165045707
  H        -0.7784669747        5.3244207426       24.8145326648
