352
i =
  H        -3.0685301229       15.0563786899       15.4744882173
  C        -3.0377293934       13.9822332523       15.6455255609
  H        -3.9400321036       13.6282861294       16.1090601131
  C        -2.0359281942       13.6677154120       16.8385068641
  C        -2.8456137608       13.2603967375       14.3030534861
  C        -2.7331529877       13.7312154611       18.2500270245
  H        -1.5778610222       12.6986528836       16.6212140327
  H        -1.2506875939       14.4398029817       16.7385833881
  H        -2.1722866355       13.8515772991       13.6555887196
  H        -2.4729090038       12.2979263984       14.2023579174
  H        -3.7274899799       13.2617805556       13.6683095808
  C        -1.7760025604       13.1776903326       19.3545689633
  H        -3.6477044046       13.1225376110       18.2849281777
  H        -2.9418270405       14.7133634556       18.5190471429
  C        -2.1551468632       13.5422994199       20.7897152322
  H        -1.7344948776       12.1140811402       19.1536636097
  H        -0.8142733518       13.6191006103       19.1577226079
  C        -1.1483218379       12.9475708442       21.8572708227
  H        -3.1273061601       13.0819485203       20.8711439275
  H        -2.3816956061       14.5702318083       20.9007273573
  C         0.0836055585       13.9123317784       22.1547342569
  H        -1.8275344641       12.8659117990       22.7138314750
  H        -0.8994276863       11.9456149670       21.4968616314
  C         1.2539937791       13.2366311393       22.7698034458
  H         0.4702345226       14.4707327774       21.3670958077
  H        -0.1735653406       14.6556666857       22.8758612570
  C         1.6718764057       11.9526738989       22.1195541539
  C         0.8926046135       12.5311093110       24.0136058033
  C         2.4730068523       14.2003621673       22.8343813223
  C         1.5726055682       10.7929322575       22.8879696170
  C         2.1140777339       11.5503353490       20.8145356138
  C         1.0087614335       11.1548904874       24.0824261623
  C         0.3716094147       13.1362837365       25.1225276802
  H         2.7601066934       14.5029059183       21.8251885567
  H         2.2363005719       15.1035444790       23.3301926318
  C         3.7309718220       13.7217765414       23.5772001661
  S         2.0422947376        9.2652043953       22.1578453268
  C         2.3633870695       10.1870878700       20.7339738970
  H         2.1273942793       12.2631165759       20.0513758757
  C         0.5424128387       10.4634192318       25.2013897762
  H         0.3296341557       14.1924165636       25.1114360211
  C        -0.0406188993       12.4220431419       26.2409503943
  H         4.0560636779       12.6476929727       23.4488152328
  H         3.5621849310       13.7090704364       24.6865670296
  C         4.9178828122       14.6602883587       23.3048576381
  C         2.6915902186        9.5138408650       19.4909557431
  C         0.0649165691       11.0672930180       26.3248817583
  H         0.6076765093        9.4156033053       25.2443210777
  C        -0.5166629706       12.7791474175       27.4679759116
  H         5.6930602945       14.6691941101       24.0993807095
  H         4.5961597296       15.6770565252       23.3364918097
  C         5.7196066155       14.4434874187       21.9694119002
  C         2.8377866204        8.0800480401       19.2546898831
  C         2.9810983107       10.3367587694       18.2654768310
  C        -0.4931237186       10.3621930839       27.5702732100
  C        -0.8082398757       11.6791172532       28.1939363953
  S        -0.7666457285       14.2552799726       28.2221263601
  H         6.7257217305       14.8112851047       22.0805535350
  H         5.2882587321       15.1126343496       21.2520185274
  C         5.7983150752       13.0559603872       21.2615017166
  N         2.6647881779        7.1071074717       20.2324243423
  C         3.0057649828        7.5592867468       17.9453278656
  C         3.1640896750        9.8226575417       17.0057983583
  H         3.0326366294       11.4115770791       18.3906826283
  C         0.5234949035        9.4906130311       28.3098152507
  C        -1.8094414212        9.5899405988       27.3064803733
  C        -1.2028214723       12.0551433870       29.5021256822
  C        -1.2447888310       13.4081412024       29.6325499296
  H         6.6425401323       12.4790749370       21.4575260876
  H         4.9274817754       12.3853763142       21.5492391867
  C         5.6864345467       13.1635629914       19.7251733866
  S         2.7203971229        5.5938547806       19.5174409398
  N         2.8567139927        6.1347891840       17.9666899848
  C         3.1780727675        8.3482182451       16.8095509156
  H         3.3758080957       10.4891982526       16.1564935894
  H         1.0745640480        8.6730638789       27.8006394220
  H        -0.0387455153        9.0067053371       29.0847931760
  C         1.6955183985       10.2841182719       28.9932637187
  H        -1.5771745339        8.8143826465       26.4910271854
  H        -2.0306675089        9.0715440169       28.1992769464
  C        -3.0051655691       10.5202400648       26.8050063972
  H        -1.2995995232       11.3239991920       30.2979329457
  C        -1.4726600766       14.1083563380       30.9289959442
  H         5.0225034978       13.9829456495       19.4600263515
  H         5.2971414512       12.3000446308       19.2214645587
  C         7.0482155351       13.5956743208       19.2738909235
  C         3.3544557727        7.6508121107       15.6016695594
  H         2.3780911911       10.6832090706       28.2466057025
  H         1.2609181916       11.1412041008       29.3985775300
  C         2.6408212562        9.6173179863       29.9770865347
  H        -2.6980503391       11.1104300930       25.9319872060
  H        -3.1966133552       11.2309167997       27.5781451385
  C        -4.2491066006        9.7431308340       26.4740220456
  C        -1.7025498209       15.4895911570       31.1148146289
  C        -1.7443904475       13.2951001406       32.1114192798
  H         7.4506622412       14.2944179179       20.0155468989
  H         7.7333046719       12.7613696782       19.2688020376
  C         7.3069627172       14.1909240109       17.8675742207
  H         3.0061080344        6.6228286818       15.7153418717
  C         3.7879760284        8.0345902214       14.3429259397
  H         2.8713372015        8.6262498415       29.5732287463
  H         2.0120350052        9.4669009580       30.8944953290
  C         3.8815603447       10.4174847777       30.2683106163
  H        -4.0788490499        9.1297102370       25.6692458806
  H        -4.4797476477        9.1632589793       27.3521081326
  C        -5.2477787065       10.8700647189       26.2126379030
  N        -1.5042792690       16.4444104502       30.0538215015
  C        -2.0013128378       16.0646078967       32.3177399087
  C        -1.9960361352       13.8312998902       33.3560665739
  H        -1.6254763075       12.1868633724       32.1314720614
  H         8.0981993031       14.8826633781       17.7166445426
  H         7.4152807471       13.4429277574       17.0536458631
  H         6.3616532184       14.7483501037       17.5837442929
  S         4.2858504431        9.6170218248       13.7333852128
  C         4.0280441773        6.9798964762       13.3494511763
  H         3.6622029520       11.4437412626       29.9467408032
  H         4.0032196304       10.3630840269       31.3705761782
  C         5.2078199890       10.0077041334       29.6481568441
  H        -5.0515366320       11.3611616158       25.2944920838
  H        -5.3465480280       11.6694650089       26.8922398242
  C        -6.7108999080       10.2131282288       26.3830881445
  S        -1.6119311905       17.9264218434       30.7610133901
  N        -2.0876811129       17.4501611517       32.2837430471
  C        -2.1731149130       15.3307008992       33.4994717135
  H        -2.0891362590       13.1537350507       34.2341348974
  C         4.4900143408        8.7866347929       12.1877003156
  N         4.3444164941        7.4633702792       12.1387668476
  O         3.7348302679        5.8437258801       13.5927277297
  H         5.8492805078       10.8412749846       29.3370207015
  H         4.9799950662        9.5800219049       28.6663911050
  C         6.0964657607        8.9132783439       30.4070235659
  H        -6.5998982359        9.1285950487       26.1694389842
  H        -7.0152426745       10.3173776297       27.4460594724
  C        -7.6460968449       10.7826627574       25.3386588624
  C        -2.5328928772       16.0616633673       34.6813286731
  S         4.9831643590        9.5986124694       10.6495221252
  C         4.3914474535        6.6338274758       10.9502713248
  H         7.1192383077        8.9255327386       30.0560000809
  H         6.2564240128        9.1220338371       31.4588306178
  C         5.4355960078        7.5264286107       30.2229161489
  H        -7.0865687541       10.8494070718       24.4290692056
  H        -7.8388291172       11.7772159283       25.5752219967
  C        -8.8240806821        9.9686802065       25.0527140580
  H        -2.4028038681       17.1779161415       34.6517983578
  C        -2.9794987677       15.6726019157       35.8902730082
  H         4.9714690308        6.9768058751       10.1215893701
  H         4.8389522952        5.6343780444       11.1405319558
  C         2.9500327863        6.3867456918       10.5184710467
  H         5.1928525876        7.4285815740       29.1578830283
  H         4.4692264476        7.4962707779       30.6526376261
  C         6.3094978913        6.4265198480       30.7780804540
  H        -9.4804718761       10.2140006271       24.2076271379
  H        -8.4577566760        9.0073167204       24.8213159991
  C        -9.6774235808        9.8525378653       26.3139209770
  S        -3.5903927180       14.1115848761       36.2898047949
  C        -3.1245761066       16.6801779934       36.9575047123
  H         2.8018599864        5.7965444140        9.5953747130
  H         2.3522685000        5.8676058349       11.3301054861
  H         2.4552810236        7.2866677559       10.2534242543
  H         7.1136233529        6.8367477225       31.3451613641
  H         6.8232542069        5.8237037710       29.9838941218
  H         5.7788553849        5.7244600712       31.5233167002
  H       -10.6445036884        9.5502608840       26.0612275828
  H        -9.8225510665       10.7857535699       26.7847906006
  H        -9.2072506609        9.1754631454       27.0141803620
  C        -4.0680557349       14.8249575383       37.8231190242
  N        -3.7760785766       16.1367863313       38.0026695904
  O        -2.7658492945       17.8103723950       36.8748392910
  S        -4.9310837726       14.0437790622       39.1727898224
  C        -4.0160743216       16.8421666100       39.2106514429
  H        -3.8856316287       17.9630461576       38.9713707759
  H        -5.0194168985       16.7352469586       39.4688155215
  C        -3.0928078537       16.4019902972       40.3178176727
  H        -2.0131638784       16.6971908082       40.1512570707
  H        -3.4390017973       16.8456421428       41.2377270233
  H        -2.9708128090       15.3003916448       40.6414206441
  H         7.6051235927       11.8194287418        2.9486821496
  C         8.2428407406       10.9298749502        2.8947165329
  H         7.5188342904       10.1962345933        2.9701254104
  C         9.2726832601       10.9337245512        4.0797055219
  C         8.7937941671       10.7628101097        1.5140431003
  C         8.7372723961       10.9543048095        5.4874084030
  H         9.9606712967       10.1201346578        3.8567402661
  H         9.9872854951       11.7458495588        4.0136278585
  H         9.3010769924       11.6095614976        0.9803958188
  H         7.8848321466       10.5199038396        0.9714136424
  H         9.3754312553        9.8416465198        1.2554700723
  C         7.9478973384        9.7230398450        5.7805857135
  H         9.4840659744       11.0572831204        6.2023022252
  H         8.0502730237       11.8445481794        5.5731325776
  C         7.3174983028        9.8130023186        7.1643594483
  H         8.7735692908        8.9968101148        5.7843722213
  H         7.1684168141        9.3833030882        5.0768380228
  C         6.0452065065       10.7236666452        7.2345571556
  H         8.0390075659       10.1715618446        7.8758455133
  H         7.0776969712        8.7938108522        7.4415088760
  C         4.7687110775       10.0560756123        6.6501858726
  H         5.8342112436       11.0517519655        8.2692576529
  H         6.1414051231       11.5518580115        6.5823013134
  C         3.4492292640       10.9198851212        6.5803916618
  H         4.4907534178        9.1140925128        7.1246379083
  H         5.0283469219        9.7627765397        5.6310253508
  C         3.7675533309       12.3137836958        5.9889122208
  C         2.9769763878       11.5872410701        7.8366271432
  C         2.2835923983       10.2413452894        5.7309092509
  C         3.5020194720       13.4027097463        6.7981750503
  C         4.3464683289       12.7363825451        4.7748743751
  C         2.9274358223       12.9313233000        7.9624711186
  C         2.3786199441       11.0073493910        8.9176568670
  H         2.7490045354        9.6610247792        4.8940622369
  H         1.7947000127        9.5657118098        6.4308511394
  C         1.3227110891       11.2118491035        5.0332951767
  S         3.7926802937       14.9422415081        6.1401613174
  C         4.2887845942       14.1232863953        4.7449531062
  H         4.6520242782       12.0921672319        3.9901063965
  C         2.4432120093       13.5718925082        9.0501283716
  H         2.3455342346        9.9301090595        8.8920091638
  C         1.9952556476       11.6290546755       10.0857152590
  H         1.6816829422       11.8792600445        4.2699712665
  H         1.0544231372       11.9358793620        5.7500704155
  C         0.0989556465       10.5160951905        4.3976718940
  C         4.6157610850       14.8965445575        3.4968021138
  C         1.9746843425       12.9634466453       10.2126649686
  H         2.4768469053       14.6638173764        9.0755659098
  C         1.5027970191       11.1670240729       11.3266244983
  H        -0.7594224554       11.1373537312        4.3106862466
  H        -0.3576172591        9.7822938709        5.1015375924
  C         0.3272307616        9.9271049072        2.9711307260
  C         4.3489626611       16.2483064624        3.3695241443
  C         5.1986491490       14.2017699193        2.3535316264
  C         1.4424734858       13.5251061855       11.5974435156
  C         1.1217767036       12.1486979853       12.1753439641
  S         1.3322326227        9.5910680606       11.9505406852
  H        -0.2489125679        9.0592879533        2.9915512426
  H         1.3603822486        9.6841542418        2.9579149081
  C        -0.0397430842       10.8570036878        1.7892285586
  N         3.8395880829       17.1633585226        4.3572503144
  C         4.5785604145       16.9291461651        2.1545615769
  C         5.3659681416       14.8454095632        1.1530066935
  H         5.6105690135       13.2070428062        2.4144458311
  C         0.1714948609       14.3988409608       11.3819059287
  C         2.6113216166       14.2024178083       12.5368810067
  C         0.5817310140       11.5938976554       13.3392654355
  C         0.7090090754       10.2193622028       13.3880438285
  H        -0.9520243202       11.3577354673        1.9409607717
  H         0.7684806965       11.6107773845        1.8643749369
  C        -0.0884724413       10.2303742245        0.3635490571
  S         3.8940873515       18.6900630926        3.8237423703
  N         4.2020690698       18.2642249675        2.2625219646
  C         5.0354442466       16.2867767563        0.9161513242
  H         5.6501985373       14.2486328361        0.3456699858
  H         0.4254674909       15.1283651971       10.6199538766
  H         0.0268217538       15.0025065708       12.3047552762
  C        -1.1347215411       13.5687419165       11.0356881656
  H         2.9795666749       15.1345691470       12.0433729244
  H         2.2033990393       14.5251493958       13.4872826243
  C         3.8662821983       13.2946995882       12.7628395274
  H         0.2041606489       12.2956368403       14.0038771628
  C         0.3030528505        9.4079302027       14.5726085134
  H        -0.7943870373        9.4932770075        0.3926935737
  H         0.8249072149        9.7662304043        0.0171146083
  C        -0.4719107531       11.2838522991       -0.7235202896
  C         5.1022755642       17.0028906977       -0.3391180659
  H        -0.9439520662       12.9495708938       10.1922299535
  H        -1.4164015285       12.9322164341       11.8984452344
  C        -2.2618315255       14.4826888347       10.6215094408
  H         4.3237465365       12.8449504551       11.8633512417
  H         3.5381254617       12.4406207221       13.3697670560
  C         4.8855033566       13.8501745041       13.7091083710
  C         0.3820552026        8.0182907386       14.6672868830
  C        -0.0737236365       10.0908391996       15.8321078431
  H        -0.3621274544       12.2391362487       -0.2910553891
  H         0.2870980272       11.1434071708       -1.5325715183
  C        -1.9432172771       11.0518574218       -1.1479508768
  H         4.9552615402       18.0675986785       -0.1978677754
  C         5.4051000385       16.6450420855       -1.6062082868
  H        -1.9193134383       15.1141834393        9.7787394789
  H        -2.4733787017       15.2154027386       11.4740624791
  C        -3.5340782625       13.7828114707       10.3483636670
  H         4.4045854437       14.6094425357       14.3502297955
  H         5.1841208218       13.0374943180       14.3769212924
  C         6.1137756077       14.5580654088       13.1611668463
  N         0.6137591191        7.1856688256       13.5918642286
  C         0.0826432045        7.2925402076       15.8342545276
  C        -0.2569500363        9.4207723421       16.9820024729
  H        -0.1183884401       11.1377050914       15.8670357584
  H        -2.4548263362       11.9657415500       -1.4566063137
  H        -2.5198499589       10.8649891560       -0.2304453806
  H        -1.9209530234       10.1957490976       -1.7988509736
  S         5.8986951905       15.0784026832       -2.0491142476
  C         5.4262857568       17.6707632582       -2.5896332119
  H        -3.2663486951       12.7393265209        9.9328194995
  H        -4.0274544075       13.8008764993       11.3521448126
  C        -4.3889927613       14.5815774193        9.2904318820
  H         5.8263152299       15.3314062371       12.5283978158
  H         6.7130969481       13.9471564411       12.4541472523
  C         6.9390690358       15.1220227905       14.2991668686
  S         0.4719574980        5.6152910346       14.0084954148
  N         0.0979236383        5.9037478001       15.6042494806
  C        -0.2759308481        7.9031321765       16.9963208910
  H        -0.4745853977        9.9986426047       17.9329576148
  C         6.1492183072       15.8560955079       -3.6534759128
  N         5.8467393514       17.1861577984       -3.7666518338
  O         5.1699376465       18.8959198547       -2.3512071122
  H        -4.6913188304       15.5237916534        9.7984294752
  H        -3.7785821355       14.8140716923        8.3871190396
  C        -5.5799998982       13.8020046889        8.7834580114
  H         6.2417520207       15.4992382296       15.0914627355
  H         7.5698971972       14.5336466670       14.8384212826
  C         7.9239239514       16.2304351291       13.8222425348
  C        -0.4294071006        7.1616812718       18.2640633130
  S         6.7222114166       15.1145629589       -5.1731751476
  C         5.8357058447       18.0655077299       -4.9576890065
  H        -5.2857062584       13.4593212213        7.8579745366
  H        -5.6176848239       12.8802405040        9.2770236425
  C        -6.8608386700       14.6267807408        8.6404216080
  H         7.7711794371       16.2496289668       12.6726430755
  H         8.9314188298       15.8681120772       14.0247874854
  C         7.6084354920       17.6176131816       14.3277889251
  H        -0.3264400120        6.1143184265       18.0726460312
  C        -1.0224034477        7.5748757156       19.4503267006
  H         6.7457605475       17.8685076786       -5.6286634013
  H         6.0363408568       19.0347529125       -4.6359158805
  C         4.5304076431       17.8741322397       -5.7600520081
  H        -7.3256384867       14.3124908233        7.7050189891
  H        -6.6596271958       15.7257837195        8.4138836158
  C        -7.8987079203       14.3711220116        9.6849392990
  H         7.5873939442       18.3259422699       13.4741184828
  H         6.6290046698       17.5508553481       14.8383276832
  C         8.5260661575       18.0126965952       15.5573805593
  S        -1.6663781902        9.0919238137       19.8696355680
  C        -1.1510734568        6.6015394099       20.5250108261
  H         3.8167235320       17.2478714074       -5.3086338869
  H         4.8240426046       17.5462461723       -6.7410570752
  H         4.0892654174       18.8192809531       -5.9364796582
  H        -7.6412691337       13.4215947021       10.1287464611
  H        -7.7030313294       15.0305657495       10.5080988027
  H        -8.8737771349       14.2910644191        9.4070347767
  H         9.5023022915       17.5133171725       15.6055161984
  H         8.7060669426       19.0734313764       15.4792413144
  H         8.0220965394       17.8749754362       16.5420283802
  C        -1.9543934716        8.4211159876       21.4467272627
  N        -1.6157919863        7.1230063015       21.6290737632
  O        -0.6142486754        5.5312886512       20.4788410339
  S        -2.6491788513        9.3484402809       22.7443548808
  C        -1.5656009051        6.4448646668       22.9072823537
  H        -1.5350265694        5.3950629792       22.7041594649
  H        -2.4688555054        6.6775152745       23.4247729390
  C        -0.4112768543        6.8919602564       23.7565785595
  H        -0.5547096740        7.8430099813       24.2362248623
  H         0.4039230775        6.9665488599       23.0650992563
  H        -0.2126396185        6.1633642158       24.5215367313
