352
i =
  H        -3.0001913547       15.3154284811       16.4171491839
  C        -2.9318552371       14.2281014693       16.4871123617
  H        -3.8404621631       13.7277150489       16.9747416989
  C        -1.6776339630       13.8510585941       17.3161092913
  C        -2.8744638855       13.7280431057       15.1275137603
  C        -1.7507098248       14.3533772403       18.7807438279
  H        -1.6109797405       12.7584547183       17.3863001010
  H        -0.7702089601       14.1935059739       16.7780667567
  H        -3.0546505767       12.6543771823       15.0787228468
  H        -3.6258737396       14.0680676937       14.3871851823
  H        -1.9247105948       14.1887336417       14.7146073897
  C        -1.7077058636       13.1890161132       19.7554821115
  H        -2.7167724540       14.7530626611       19.1698079633
  H        -0.9300234435       15.0704940061       19.0204778000
  C        -2.1199425267       13.6236100880       21.1755369886
  H        -2.3176091822       12.3638757951       19.4219977305
  H        -0.6272324835       12.8146020619       19.8395382782
  C        -1.1866207791       13.0739284380       22.2428051245
  H        -3.1527233699       13.2877859185       21.3587878752
  H        -2.1755207724       14.6765918505       21.3889352172
  C         0.1691711747       13.8142705332       22.4059350055
  H        -1.8646971789       12.9765132378       23.1224198678
  H        -0.9619574734       12.0112290623       22.0755021712
  C         1.1363456238       13.1578863945       23.4667296608
  H         0.7441019547       13.7567690617       21.3932632487
  H        -0.0182612516       14.8514478715       22.6444704924
  C         1.4993861458       11.8194343560       22.7811331759
  C         0.5958358405       12.5106842754       24.6686120137
  C         2.3510491457       14.0630288506       23.6581379349
  C         1.3014886735       10.7017134145       23.6597579112
  C         2.0193099879       11.3625489045       21.5451727070
  C         0.6333727194       11.1415681876       24.7903495047
  C         0.1916988802       13.1659934078       25.8724567615
  H         2.6171400773       14.5191612963       22.6741881325
  H         2.0147973668       14.8625647033       24.2634249430
  C         3.6270157833       13.3932552809       24.2977893198
  S         1.5857764823        9.1458033824       22.8855153184
  C         2.1437191535       10.0040827205       21.4604919994
  H         2.1646576160       12.0391534331       20.7590444952
  C         0.1729504870       10.4686707886       25.8839062255
  H         0.2003814043       14.2299969962       25.8920437933
  C        -0.2062660588       12.4612307618       26.9429871954
  H         3.8455049465       12.5695880590       23.6969174035
  H         3.4420194708       13.0651646142       25.3066531351
  C         4.8109206028       14.2539266799       24.0768441326
  C         2.6938666678        9.3186784814       20.2124372958
  C        -0.2903344070       11.1104857212       27.0311506975
  H         0.2324241754        9.3876395774       25.8872062861
  C        -0.6491617611       12.8365531421       28.1662703658
  H         5.5959753853       13.8326792114       24.7134331104
  H         4.6526847687       15.2412204331       24.4863929258
  C         5.3543222351       14.2319654150       22.6109299170
  C         2.6431687912        7.8895075986       19.9728845145
  C         3.1264237858       10.1581730295       19.1147055890
  C        -0.6961952423       10.4378181943       28.3330021167
  C        -0.9754253597       11.7511680748       29.0021563187
  S        -0.8535933319       14.3807901792       28.9894304385
  H         5.5581020625       15.2231794272       22.2855860204
  H         4.6162679400       13.9250365255       21.8807057999
  C         6.4747073001       13.1854884036       22.3697353768
  N         2.2579957291        6.8624651729       20.9422178330
  C         2.9288264892        7.4035953560       18.6861483926
  C         3.4188294682        9.6481189921       17.8978233986
  H         3.3554310190       11.1963797441       19.2574796049
  C         0.3829691427        9.7324173918       29.1048086255
  C        -1.9641717087        9.5942259237       28.3801156289
  C        -1.3282702943       12.1175775185       30.2659254403
  C        -1.3405801912       13.4782737516       30.4443045218
  H         7.3801458718       13.7492976880       22.5472889163
  H         6.3469533780       12.3176244749       23.0438220597
  C         6.5047335084       12.6603533091       20.9174302239
  S         2.2363473025        5.4287166353       20.2206271649
  N         2.7813816370        5.9585830427       18.7640969271
  C         3.2135118745        8.2012188909       17.5755595721
  H         3.6711158352       10.3185525552       17.0819358757
  H         0.4935390646        8.8772954631       28.4759078474
  H         0.0131886334        9.5068418441       30.1434324551
  C         1.6535871151       10.6555655073       29.3281608453
  H        -1.9400700086        8.7108940831       27.7867045164
  H        -2.1294227710        9.4497019757       29.4470465912
  C        -3.2055848674       10.4062509834       27.9442091646
  H        -1.5929708050       11.2872397472       30.9656475136
  C        -1.7395715739       14.1455270220       31.7650036313
  H         5.5594013558       12.1939517910       20.7986865681
  H         7.3265018927       11.9541259045       20.7566283010
  C         6.7054459295       13.7484490053       19.8640174013
  C         3.3909933696        7.5331544795       16.3307671494
  H         2.1287388279       11.0468509049       28.4191687711
  H         1.3821809544       11.4676307314       30.0268914655
  C         2.7624144294        9.9386004777       30.1039342242
  H        -2.9046757445       11.0568438675       27.1865675009
  H        -3.6130047291       11.0068341943       28.7549843867
  C        -4.4805466322        9.6299636004       27.5813854264
  C        -1.7837376401       15.5813648803       31.9943195525
  C        -2.1138188888       13.3928438509       33.0060058000
  H         6.0860484402       14.5823383867       20.1530943192
  H         7.6865043625       14.2579753970       20.1028824841
  C         6.5376533554       13.4019453620       18.3867826249
  H         3.3422801401        6.4460043388       16.3174292919
  C         3.5861997037        7.9230207334       15.0034897601
  H         2.8298965799        8.8933254688       29.7011416147
  H         2.4995891135        9.8370927560       31.1955834019
  C         4.0677373106       10.6041112263       29.9523932892
  H        -4.2465420618        8.8584679936       26.8210402531
  H        -4.8124316693        9.0620717141       28.4939564704
  C        -5.5765122038       10.6176929334       27.1003069170
  N        -1.3854168452       16.4456703303       30.9902840722
  C        -2.0795462459       16.1992974059       33.1932594208
  C        -2.5419579131       14.0031865938       34.2065710299
  H        -2.0685035436       12.3349125680       33.0105397765
  H         6.2014730186       14.2544323618       17.8076588305
  H         7.5066943419       13.0698783873       18.0140154622
  H         5.7552118922       12.6768556126       18.1677980673
  S         3.8714150619        9.5045342069       14.4740979196
  C         3.7400827726        6.8666000153       13.9623499470
  H         4.1482257449       11.1292151874       28.9596930246
  H         4.1108935189       11.4137776471       30.6080316195
  C         5.1762794757        9.6090620381       30.1919158665
  H        -5.0243609122       11.3047161800       26.4256860248
  H        -5.9097425536       11.1521533027       27.9444736572
  C        -6.7078387096        9.9085725330       26.3172055611
  S        -1.6201268954       17.9555467576       31.5604614451
  N        -1.9851148630       17.6212185234       33.0683383558
  C        -2.5072364742       15.4505954410       34.3343350491
  H        -2.8115965483       13.3546650709       35.0130181008
  C         4.0328882986        8.8241509043       12.8732285954
  N         4.0845046883        7.4692864326       12.7472608966
  O         3.7351620888        5.6661590724       14.1630770042
  H         6.0785560129       10.1306159668       30.0354105145
  H         5.1318994686        8.9512148597       29.3749302817
  C         5.0355854991        8.5674327627       31.3129693078
  H        -6.2746938429        9.2076903541       25.6804075966
  H        -7.2530643805        9.2631300729       27.0467035636
  C        -7.5924004766       10.9562367117       25.5964726833
  C        -2.7280234070       16.1544822844       35.5336524502
  S         4.5364117670        9.6738166098       11.4966097480
  C         4.1770786556        6.6419685656       11.5073455080
  H         5.2301239684        9.0725769005       32.2682160675
  H         4.0841472969        8.0632453088       31.4941536035
  C         6.1847448775        7.5461288213       31.1994758972
  H        -7.0479089647       11.3645869584       24.7541558488
  H        -7.8259423081       11.7318024364       26.2871157282
  C        -8.9049056387       10.3324083079       25.1022908312
  H        -2.7069585658       17.2078219221       35.4498218147
  C        -3.1613375419       15.8308372977       36.7995661059
  H         5.0638066046        6.8925268981       10.8405636674
  H         4.2954356232        5.6191501253       11.7798954627
  C         2.8280907297        6.7850511171       10.8415375661
  H         7.0081444473        8.0468699921       31.6909107837
  H         6.4274416137        7.2736023904       30.1745869183
  C         5.7686212864        6.2401528283       31.9187411771
  H        -9.5329062074       11.0050762276       24.5068022711
  H        -8.7174771881        9.5919915475       24.3223830289
  C        -9.8917619425        9.8964147723       26.1841935172
  S        -3.4711591352       14.2134087625       37.3906360774
  C        -3.2861318171       16.9505911534       37.7789509931
  H         2.3248373092        5.7769563608       10.5897232263
  H         2.1089103164        7.3438150329       11.4244978078
  H         2.8340969958        7.3571332769        9.9541759959
  H         6.6303447495        5.6584551732       31.6287485953
  H         4.8859147811        5.7078383574       31.5641403845
  H         5.7710056989        6.4196885420       32.9788534924
  H        -9.7574044979        8.8877941714       26.5746159316
  H       -10.8691306444        9.8971933334       25.6019690717
  H        -9.9685676658       10.7408974301       26.9231789481
  C        -3.8073477667       15.0764726036       38.9441850841
  N        -3.8102308299       16.4479129216       38.9194129829
  O        -3.0494877014       18.1053781917       37.4720072780
  S        -4.6884257559       14.3066047494       40.3081684644
  C        -4.0351909870       17.2340992823       40.1339498141
  H        -4.4855941731       18.2064043724       39.9478736135
  H        -4.6735162393       16.7756901540       40.8523250920
  C        -2.6730216370       17.4851569373       40.8187035394
  H        -2.7047666796       18.0755938038       41.7164892123
  H        -2.1464459668       16.6092829870       41.2249035886
  H        -2.0272096409       17.9777380289       40.1304193322
  H         7.6523067925       11.5814692927        3.5394510665
  C         8.1699878181       10.5768083912        3.6824017962
  H         7.2663182380       10.0555964205        3.9664047405
  C         9.0142299966       10.5812447217        4.9327474156
  C         8.8405220888       10.1645066148        2.3887288202
  C         8.2152614780       10.8459274667        6.1614934305
  H         9.7790613837        9.8200252786        4.8922372655
  H         9.5976222989       11.5095589746        4.7903012582
  H         9.5911159713       10.8711682908        2.0169235704
  H         8.0255004123       10.1089349423        1.6678273632
  H         9.2969686301        9.1723606309        2.4588383416
  C         7.5246537245        9.5339690412        6.7441970665
  H         8.9276604429       11.3537541386        6.9621856768
  H         7.4615639169       11.5026320940        5.7115197299
  C         6.8231887544        9.7793473502        8.1001295597
  H         8.2311031682        8.6900730589        6.8396655855
  H         6.8193649698        9.1932650507        6.0166711275
  C         5.6117536582       10.6633905553        8.0616687390
  H         7.6081885999       10.1855295045        8.7891480171
  H         6.5223521332        8.8090901747        8.5639081419
  C         4.3066860455        9.9461160818        7.4872101041
  H         5.4984165732       11.1268211460        8.9911254600
  H         5.8285998937       11.4049451649        7.2853840043
  C         3.1018438420       10.8467543467        7.2345302480
  H         4.0670979655        9.0875454534        8.1386273215
  H         4.6693344790        9.5585890320        6.5402511636
  C         3.4518086801       12.1858114455        6.5857414805
  C         2.6076505762       11.4558795077        8.4730624709
  C         1.9448300126       10.2075259381        6.4970369595
  C         3.1519963255       13.2774937459        7.4281638856
  C         4.0071177411       12.6440671560        5.3897693389
  C         2.6537973672       12.8107646157        8.6262870396
  C         1.9452616266       10.8701112512        9.5511547430
  H         2.2617608067        9.6964478933        5.5729707688
  H         1.6264054981        9.3743692976        7.1454879944
  C         0.6819271124       11.0199406627        6.3749086392
  S         3.3344249528       14.8288867429        6.6253931491
  C         4.0033773356       14.0256139459        5.3365418580
  H         4.4237888009       11.9600443599        4.6640722825
  C         2.2077210487       13.4374789024        9.8165454601
  H         1.8840472467        9.7980994643        9.4913517606
  C         1.5486793926       11.4760661310       10.7371631314
  H         0.8423542545       12.0915746642        6.2153707222
  H         0.1100905720       11.1258598886        7.3801316377
  C        -0.3276208025       10.5485022774        5.3710920100
  C         4.4282646672       14.8244327705        4.1436071068
  C         1.7183629938       12.8142146302       10.9812229404
  H         2.3232232556       14.5215549947        9.8984478020
  C         1.1201475212       10.9830441525       11.9642774995
  H        -1.0089684773       11.4501500286        5.2609715749
  H        -0.9691270921        9.7614627390        5.6947705375
  C         0.1976087051       10.1657748476        4.0036464415
  C         4.3323580658       16.1917961456        3.8142683273
  C         4.8538760280       14.0289203270        2.9509493612
  C         1.2936483640       13.4789690853       12.2201150571
  C         0.9722548000       12.1060921652       12.8303124143
  S         0.7878640357        9.4306978636       12.7203586953
  H         0.6118640310        9.1821479735        3.9274594276
  H         1.0255157313       10.7709576977        3.8076841302
  C        -0.8504347429       10.4205355029        2.8604751552
  N         3.9026125074       17.0947794817        4.8260522854
  C         4.6915742829       16.8122904608        2.6774758114
  C         5.0892980006       14.6471714720        1.6807167353
  H         4.7888872282       12.9417022858        3.0059854572
  C         0.1606568793       14.4496001247       11.9865803546
  C         2.5069502401       14.1409497548       13.0285917496
  C         0.5013015273       11.6766206133       14.0612228131
  C         0.4824625511       10.2818758503       14.1780664338
  H        -1.6233882204        9.7205702822        3.0308905471
  H        -1.3066496494       11.4122778618        3.1626403388
  C        -0.3159615084       10.3457704444        1.4647583101
  S         4.0101199623       18.6295453325        4.2855900795
  N         4.5647280357       18.2309546004        2.8150860993
  C         4.9460347598       16.1041878428        1.4796801001
  H         5.2878333818       13.9879086444        0.8688104090
  H         0.6090244590       15.2138161585       11.3199163417
  H        -0.1459897727       14.7963075533       12.9424078955
  C        -1.1032124991       13.8680338345       11.2886118431
  H         2.8840078936       15.0348569514       12.5040068550
  H         1.9364042902       14.5844893878       13.8294568613
  C         3.6518764480       13.1887502712       13.4933897815
  H         0.4701787862       12.3905294926       14.8061173060
  C         0.2134479357        9.6151193812       15.5395660492
  H         0.3829631430        9.5538769547        1.3640135546
  H         0.2585523249       11.1822332466        1.3512645240
  C        -1.3991165433       10.3086870136        0.3283985319
  C         5.1286478780       16.9044550675        0.2897213159
  H        -0.8465351230       13.6492913799       10.2619061127
  H        -1.3944255039       12.9150794019       11.6874779405
  C        -2.4014141613       14.6698806452       11.2251500180
  H         4.0213928170       12.6443898261       12.6843809015
  H         3.3040083999       12.4836131173       14.1836849356
  C         4.7903680467       14.0001545974       14.1044379875
  C         0.3127456609        8.2292537624       15.7195993656
  C         0.1348595074       10.4157906313       16.7339786472
  H        -2.0173722113        9.3887162327        0.4399106742
  H        -2.0736002561       11.1536291458        0.5184345510
  C        -0.8839982434       10.4168618487       -1.0941278946
  H         4.9794166838       17.9595697224        0.3251678406
  C         5.2460599965       16.5105615540       -1.0526454807
  H        -2.2305211083       15.6745319893       10.9468516648
  H        -2.9524069926       14.6889371259       12.1597663441
  C        -3.4164850366       14.1557685382       10.1410768100
  H         5.0271020917       14.7536412909       13.4417079979
  H         4.6005730170       14.3343105461       15.0749948184
  C         6.0622906332       13.0976259284       14.2791936200
  N         0.4624337113        7.2637584685       14.6908966921
  C        -0.0235111563        7.6129600398       16.8952510815
  C        -0.1261176993        9.8229442657       17.9453476000
  H         0.0188232174       11.4902083538       16.6461593853
  H        -1.0156091852        9.4215267878       -1.6088642153
  H         0.1797236538       10.6710845554       -1.0722913262
  H        -1.4475923563       11.2095511719       -1.6896136165
  S         5.4539576022       14.8781218950       -1.6104346010
  C         5.3739010802       17.5413725965       -2.0833239171
  H        -3.4766906312       14.9031020424        9.3692861090
  H        -3.0112000958       13.3270180659        9.5172035754
  C        -4.7300160507       13.9486124626       10.8418518573
  H         6.2232848439       12.3358591876       13.4900678646
  H         5.8958091297       12.4537351140       15.1548492660
  C         7.3856293017       13.8096932281       14.6112483356
  S         0.3861434637        5.7864476062       15.3482084139
  N         0.0090944359        6.2442553432       16.8242865971
  C        -0.2333250118        8.3714176625       18.1136063466
  H        -0.2791783143       10.3676979778       18.8674876562
  C         5.5777493836       15.5887427972       -3.1872654987
  N         5.4734013937       16.9138730967       -3.2965608333
  O         5.1981890120       18.7477819159       -1.8486297746
  H        -4.7481967687       13.6034522344       11.8825888862
  H        -5.3423609741       14.8207392759       10.9000471546
  C        -5.5508260172       12.8814722593       10.0896359233
  H         7.6225680983       13.6659772606       15.6541963043
  H         8.0927840548       13.2625985414       14.0245724447
  C         7.5639345821       15.3567289417       14.2733563734
  C        -0.4672275941        7.6580423263       19.3486622409
  S         5.9097392177       14.7048340640       -4.6861607285
  C         5.3764203487       17.6119269389       -4.5845715732
  H        -4.9525462701       11.9467759066       10.0411365018
  H        -6.3107600025       12.5565109781       10.7697604520
  C        -6.1931370722       13.1996659389        8.7522920280
  H         6.8486082712       15.6690042398       13.5070936048
  H         8.5546686927       15.4684255301       13.8696545832
  C         7.2001093890       16.3183859243       15.4119120175
  H        -0.2042533185        6.6187566804       19.4018237168
  C        -1.0831012027        8.0859720692       20.4459999677
  H         6.2575435605       17.3980838518       -5.1533554883
  H         5.4420384036       18.6440915488       -4.4133296082
  C         4.0019085420       17.3793289666       -5.3085341191
  H        -6.0345771192       12.4377527943        8.0323811908
  H        -5.7316280111       14.0745956968        8.3999175946
  C        -7.6980353586       13.4657960404        8.9708844390
  H         6.1338100825       16.2853539907       15.5854127223
  H         7.6992177996       16.0429740360       16.2977844025
  C         7.5913267940       17.7616458141       15.0242387644
  S        -1.7150233101        9.6104752369       20.7145996512
  C        -1.2690204633        7.0863192791       21.5738612629
  H         4.1697759724       17.0190021942       -6.2916997222
  H         3.4091061706       18.3420484739       -5.2516248231
  H         3.3488091885       16.7035509907       -4.7460746287
  H        -8.1380041883       12.5929663756        9.4485844555
  H        -7.8207213446       14.3877891692        9.6143082957
  H        -8.2182204945       13.5331681806        7.9969037757
  H         8.6743454686       17.7913935845       14.7611514399
  H         6.9839276766       18.2136708305       14.2961364179
  H         7.5654268496       18.2883595655       16.0059548902
  C        -2.2244816803        9.0379758600       22.3165634612
  N        -1.9412403731        7.6999311762       22.5580603574
  O        -0.8643628156        5.9366597306       21.5841512290
  S        -2.7496416515       10.0442842247       23.7930021017
  C        -2.2121353256        7.0491881622       23.7637413255
  H        -2.4431822632        5.9871456770       23.5504208046
  H        -3.1333735086        7.3912883120       24.2372201884
  C        -1.0689109278        7.0793427734       24.7992121535
  H        -0.1426355468        7.2084068399       24.2672341333
  H        -1.1948450813        6.1832943059       25.3677187220
  H        -1.1189896852        7.9160397809       25.5177430970
