352
i =
  H        -3.5344364932       15.6787870256       16.7134415796
  C        -3.3255374276       14.6221108102       16.6238613212
  H        -4.2731485953       14.1032216223       16.8268231463
  C        -2.1884239467       14.3251556492       17.5627319921
  C        -2.9460114893       14.5146864794       15.1645417257
  C        -2.5400973878       14.4653998432       19.0513827222
  H        -2.1120096414       13.2355970553       17.3975259347
  H        -1.2788470595       14.8816907412       17.3402285708
  H        -2.7445554805       13.4828936629       15.0552889389
  H        -3.8148023931       14.7613304236       14.6387783102
  H        -2.0333961896       15.1518365783       14.9191641183
  C        -1.9014362580       13.3515208246       19.8837668726
  H        -3.6718574641       14.4777012343       19.2725196224
  H        -2.0735273401       15.3794184468       19.3918838578
  C        -2.1295051691       13.6816838828       21.3464778667
  H        -2.2887038417       12.3809987998       19.6312156673
  H        -0.8671395764       13.0415835586       19.8524782362
  C        -1.1918631767       12.9665822194       22.3043666352
  H        -3.1545022293       13.4229764533       21.5631176243
  H        -1.9288772736       14.7591893291       21.4981182172
  C         0.1201157534       13.7747854631       22.5635221536
  H        -1.5622740393       12.7884388889       23.3296494347
  H        -1.0525266488       12.0858437802       21.7945522079
  C         1.2494602018       13.0233075599       23.3342579174
  H         0.5095986408       14.1383478785       21.6591593221
  H        -0.0792871664       14.7839077251       22.9713471121
  C         1.7250072941       11.7205736268       22.6156505471
  C         0.6907025802       12.2673578152       24.4832669684
  C         2.4925317133       13.9404077385       23.5664872213
  C         1.4314396518       10.6337394450       23.3559689474
  C         2.3980543501       11.3856319410       21.4369842719
  C         0.8477695007       10.9453644919       24.5453815143
  C         0.1300913174       12.8629804497       25.5801306991
  H         2.6026706607       14.6546910988       22.7644994961
  H         2.1576581740       14.6573047351       24.4430685823
  C         3.8378291584       13.2075487492       24.0211385467
  S         1.8733539797        9.0885757561       22.7301818091
  C         2.4746095469       10.0029223717       21.3677658265
  H         2.6486297506       12.1869691219       20.8266644070
  C         0.5372498605       10.3585891836       25.7317764819
  H         0.1872149424       13.9020410595       25.5733470184
  C        -0.1311976656       12.3280030095       26.7663278923
  H         4.1281759865       12.5713556781       23.1377890546
  H         3.6731155713       12.5432326334       24.8216286103
  C         5.1167402409       14.0337689971       24.2933433526
  C         2.9352444477        9.4773484182       20.0782743475
  C         0.0892167915       11.0129878461       26.8812562816
  H         0.7702586090        9.2973385349       25.8859895306
  C        -0.4922206730       12.7341678553       28.0468110267
  H         5.8620832587       13.5853169201       25.0374915199
  H         4.8937017961       15.0530676835       24.5589728767
  C         5.9485361395       14.1679868508       23.0373257524
  C         2.9431279329        8.0687310424       19.8014021894
  C         3.3825460383       10.3257946747       18.9657221964
  C        -0.4400871749       10.3040402179       28.1311377723
  C        -0.7863319789       11.5970323023       28.8165339038
  S        -0.7376526042       14.2127063790       28.8607249617
  H         6.6443150326       14.9216422382       23.2614512478
  H         5.3145272530       14.3699671212       22.1354976402
  C         6.7776781805       12.9843883097       22.4702824325
  N         2.5695856000        7.0644912725       20.6521314346
  C         3.1432963821        7.5719643691       18.5460545795
  C         3.7124259037        9.8347288296       17.7031985382
  H         3.6046406116       11.3924111169       19.1045520068
  C         0.7933026806        9.4985217719       28.6256187646
  C        -1.7165499882        9.4132918403       27.8265462633
  C        -1.2918765158       12.0356901358       30.0604305042
  C        -1.3237232285       13.3504901377       30.2820927717
  H         7.4257850935       12.6738946786       23.2445154676
  H         6.0215287561       12.1623614087       22.3020594657
  C         7.5210184121       13.3776004093       21.2238820145
  S         2.2215260938        5.6992271129       19.9418237768
  N         2.9366808062        6.1467413200       18.5635052754
  C         3.4431922328        8.3402075268       17.4166155730
  H         4.0636049167       10.3809247772       16.9397704742
  H         0.8956589847        8.5852671858       28.0473284125
  H         0.3278863152        8.9509679625       29.4269840733
  C         2.0817675524       10.1540543118       29.0863630867
  H        -1.3992768582        8.6433443582       27.1359195592
  H        -1.8940433563        8.7500205203       28.6681760180
  C        -2.9478010777       10.1868557135       27.3315369079
  H        -1.4724105701       11.3348944808       30.8591553556
  C        -1.5339597835       14.0882330123       31.5708371635
  H         8.4526470180       12.7653368162       21.1644598184
  H         7.8084308451       14.4309796605       21.0529592952
  C         6.7019210020       12.9382740379       19.9371140009
  C         3.4803428284        7.7277154276       16.1174125763
  H         2.4218891528       10.8391372583       28.2776580131
  H         1.8546945903       10.8267988596       29.8521379845
  C         3.1761900564        9.2710871070       29.6796371503
  H        -2.6885162018       10.7457966579       26.3709913244
  H        -3.1208980207       10.9535655537       28.0481429458
  C        -4.2695855024        9.4995354172       27.0775464378
  C        -1.6408186316       15.5177977883       31.7439560137
  C        -1.7852605639       13.3067730694       32.8083663876
  H         7.2803370755       12.0713312677       19.6539577894
  H         5.7775812972       12.6362572029       20.2582812401
  C         6.7732354912       13.9210379426       18.7942176268
  H         3.6745674660        6.7442673253       16.0737212530
  C         3.7877455829        8.1483048336       14.8739773243
  H         3.3852578276        8.5495794459       28.8474750772
  H         2.6405294097        8.7731987848       30.4648157609
  C         4.4499899160       10.0337535541       30.1346390148
  H        -3.9151160927        8.7804324149       26.4253221146
  H        -4.6954150565        9.2177230288       28.1359919894
  C        -5.2777061996       10.3197101821       26.3312023362
  N        -1.6106587254       16.4593208782       30.6902452300
  C        -1.9583418003       16.1137111294       32.9222345188
  C        -2.1250933060       13.9795143048       33.9480068289
  H        -1.8830920863       12.2385058316       32.8996548208
  H         5.9666369621       14.7380465033       18.9680671850
  H         7.6689692698       14.4814864971       18.7618737030
  H         6.6703523638       13.3506064090       17.9602020444
  S         4.1237989036        9.7615253819       14.2755199768
  C         3.9449221308        7.0381175470       13.8406770120
  H         4.6680720689       10.9343269093       29.5237707721
  H         4.4872473076       10.4556924720       31.1496748581
  C         5.6515183675        9.1717822176       29.9298542550
  H        -4.8272295625       10.9891548319       25.5469245234
  H        -5.7037232626       11.0731298210       27.0472468799
  C        -6.4692696110        9.5701300369       25.8656268218
  S        -1.7813635034       17.9793023459       31.2331830678
  N        -2.0934778634       17.5294375598       32.7925119852
  C        -2.2197055340       15.4257702826       34.1276951512
  H        -2.1816861077       13.4233065953       34.8839980431
  C         4.3991397741        8.9604237062       12.6803438235
  N         4.3373821267        7.6086065272       12.6695533697
  O         3.8460528187        5.8982422727       14.0242278581
  H         6.3865087116        9.9804637429       30.0302084761
  H         5.7192959497        8.7598696004       28.9616514434
  C         5.8686414715        8.1839176470       31.0593964676
  H        -6.2307163447        8.8562171272       25.1925240755
  H        -6.8532547769        9.1138599170       26.8204850851
  C        -7.4474528236       10.5182915700       25.1783325179
  C        -2.3896050110       16.1513121862       35.3078751713
  S         4.9143523773        9.7424359912       11.1120237376
  C         4.3049190289        6.8460834135       11.4029495909
  H         6.7591762108        8.5050179071       31.5432564038
  H         5.0257807784        8.2880407699       31.6849583152
  C         5.9199763180        6.8361970584       30.3727126822
  H        -6.9428148896       10.8337467235       24.2611019042
  H        -7.5441088099       11.4321705608       25.6984661504
  C        -8.7959227065        9.8713780221       25.1432692551
  H        -2.0852026373       17.2092255525       35.1724137189
  C        -2.8629939538       15.7088008023       36.5004914402
  H         5.0673963106        7.2137127881       10.7513178773
  H         4.5987253835        5.8807932196       11.5651253005
  C         2.8926997787        6.6821731188       10.6737078412
  H         6.7886867668        6.8760332846       29.7794381413
  H         4.9961852042        6.6410623411       29.7346090066
  C         6.0698601920        5.6028196058       31.3346830737
  H        -9.2323660606       10.4922234758       24.2835295939
  H        -8.8605939683        8.7898936564       24.8267317678
  C        -9.6916580232       10.0210847025       26.4338183895
  S        -3.6711027376       14.1965196637       36.9047984267
  C        -3.0017840284       16.7696065463       37.5895576052
  H         2.0454431975        6.9389306755       11.2222951173
  H         2.8664826567        7.1034321138        9.7294873529
  H         2.7102664327        5.5976174048       10.5794352638
  H         5.1679419079        4.9697466016       31.2054592880
  H         6.1337246791        5.9436595875       32.4015311031
  H         7.0537906945        5.0941923729       31.1729663621
  H       -10.6728077325        9.5471443768       26.3955904595
  H        -9.7021703670       11.1000124819       26.7504443384
  H        -9.1141350601        9.7403475761       27.3467698798
  C        -3.9384886644       14.9429523265       38.5289546966
  N        -3.6030837625       16.2440128168       38.6762347358
  O        -2.6480954172       17.8839743843       37.3746723959
  S        -4.7568975510       14.0780921198       39.8953421327
  C        -3.7021607626       17.0229055187       39.9645201919
  H        -3.9058785699       18.0079750843       39.6384030202
  H        -4.5894534870       16.5868298344       40.4725695488
  C        -2.3429599165       16.9758891419       40.7728177863
  H        -2.2101142165       17.9462558616       41.1925804167
  H        -2.4021305728       16.2918670507       41.5228940427
  H        -1.5432439206       17.0168198423       39.9694793427
  H         8.7486547386       11.3466710575        4.3335629814
  C         8.3219309369       10.4620907843        3.7697812871
  H         7.3081147722       10.6340638291        3.4761701216
  C         8.4023192322        9.2994328639        4.7957354336
  C         9.1799614642       10.2697601650        2.5991929057
  C         7.8730801568        9.8707043517        6.1269753931
  H         7.8935589456        8.3679288389        4.4206464380
  H         9.3328679505        8.8162675954        4.8359557212
  H         8.5127950634       10.0433525511        1.7680693736
  H         9.8261074567        9.3628369135        2.7794072412
  H         9.8533546188       11.0875129593        2.2055032323
  C         6.9772596141        8.7879466634        6.7857458387
  H         8.6387235347        9.9825979248        6.9402421569
  H         7.5030556642       10.8470057048        5.9842333107
  C         6.1256450396        9.3969970642        7.9317575129
  H         7.6129363267        8.0959412064        7.2623538811
  H         6.2597004490        8.4382223885        5.9518453838
  C         5.0012311216       10.3364241197        7.5047974835
  H         6.7730803105       10.0463158999        8.5743157126
  H         5.6594027024        8.6806857426        8.6817809121
  C         3.7468861831        9.7054876347        7.0945208145
  H         4.8435255854       11.1486321298        8.1762098025
  H         5.4102229721       10.9767032648        6.6705728570
  C         2.7126234166       10.7937128775        6.9664895916
  H         3.5995000149        8.9606522439        7.8544317411
  H         3.9196565723        9.2825998471        6.0658814131
  C         3.1490730458       12.1131508527        6.2733905352
  C         2.3660986064       11.4979081355        8.1989417230
  C         1.4299655606       10.1079208530        6.3662633319
  C         2.9359283612       13.1943909744        7.1270130476
  C         3.4894352246       12.5077069211        5.0355050142
  C         2.5083093910       12.8099399194        8.3800084393
  C         1.8815392851       10.8108625709        9.3264552955
  H         1.6846970685        9.5661994400        5.4957459266
  H         0.9331968127        9.3733474148        6.8614139051
  C         0.3525096645       11.0697588014        5.8519661492
  S         3.2420302532       14.7002351667        6.3982198456
  C         3.7881633553       13.8265407490        4.9437208788
  H         3.7731486411       11.7864645316        4.2425406527
  C         2.1129337851       13.3823188954        9.5486297222
  H         1.6942319386        9.7791928446        9.1819577674
  C         1.7096586561       11.3372335070       10.5876498118
  H         0.8580255706       11.8826133754        5.3766818458
  H        -0.1507517951       11.5439802295        6.6665629399
  C        -0.5356373012       10.3921198508        4.8094562123
  C         4.1467913663       14.4905319621        3.7015287443
  C         1.7122115538       12.6898035917       10.7360492570
  H         2.1489417859       14.4244170242        9.6370879417
  C         1.1971657854       10.9079763582       11.7955320614
  H        -1.3676229447       11.0463723243        4.5315940103
  H        -0.8619736704        9.4536191089        4.9837351585
  C         0.1543572668       10.3806142503        3.4389323096
  C         4.1137939673       15.9514599922        3.3984436486
  C         4.4814931798       13.7848707366        2.4514059555
  C         1.2964997782       13.3622063648       12.0108142192
  C         1.0554544824       11.9846234327       12.6813421986
  S         0.8581687353        9.4138373570       12.4792836782
  H         1.0556121037        9.9235694692        3.5534472175
  H         0.3807014307       11.4453559148        3.2106811492
  C        -0.6364235603        9.7285488835        2.3438181368
  N         3.8237022577       16.9005377518        4.3217146787
  C         4.2570836564       16.5184985099        2.1248119015
  C         4.6561101859       14.3359769350        1.2077256489
  H         4.6779581307       12.6899408812        2.4413943042
  C         0.0193193207       14.1887296157       11.7274872878
  C         2.4255025607       14.1488252137       12.6682274592
  C         0.7027068773       11.4839891725       13.9812948037
  C         0.5419249229       10.1779105015       14.0651297123
  H        -0.3091604045        8.7174589630        2.2926568085
  H        -1.6256770047        9.7230689954        2.4806857396
  C        -0.3077298625       10.4348947850        1.0132215999
  S         4.0479377895       18.4134757208        3.6732219229
  N         4.2691487889       17.9410600641        2.1331582611
  C         4.5545380359       15.7612339525        1.0607258700
  H         5.1221589287       13.6791039328        0.4785493325
  H         0.3401355297       15.0658655815       11.2557627777
  H        -0.3910284041       14.2498891171       12.7027856494
  C        -1.1369262620       13.5165755771       11.0047531677
  H         2.7798324389       14.9366092330       11.9895949408
  H         1.8667924257       14.5760903153       13.5363050619
  C         3.6690918893       13.3209647618       12.9812716094
  H         0.6491701230       12.2440297061       14.8030053028
  C         0.3294362618        9.4531487886       15.3149898658
  H         0.8010773326       10.2702644104        0.6378190584
  H        -0.4975776946       11.5262705356        1.0037839437
  C        -1.1149307299        9.8868332794       -0.1225062662
  C         4.7341320999       16.4413924439       -0.1719414697
  H        -0.8673885887       13.4306275871        9.9832720610
  H        -1.3001405241       12.4874300461       11.2466379168
  C        -2.5260769109       14.1935456637       10.9760906238
  H         4.1502783426       12.7461406626       12.1882969731
  H         3.3144120837       12.6391513760       13.7528216896
  C         4.7249142407       14.2800127619       13.5100252044
  C         0.4266587567        8.0752712880       15.5108680524
  C         0.1022941575       10.2892274727       16.5529846118
  H        -0.5031714720        9.0304406351       -0.4521013022
  H        -2.0913056654        9.5318278528        0.1893105612
  C        -1.4260143579       10.8726088699       -1.1809209130
  H         4.7720930478       17.5342242168       -0.0959890940
  C         5.0471111266       16.1514273790       -1.4917803274
  H        -2.3647559513       15.2089186853       10.5409331729
  H        -2.6780461274       14.5139699441       12.0117690872
  C        -3.6398135474       13.3100086054       10.3673859655
  H         4.8768094568       15.1028971482       12.9360807425
  H         4.2328914386       14.7401853052       14.4143079681
  C         6.0302081554       13.5212173674       13.6995208081
  N         0.6352380103        7.1245178801       14.4850671204
  C         0.1711496247        7.4725454074       16.7522568039
  C        -0.1717158279        9.6405534916       17.8082145242
  H        -0.1351809619       11.3132895792       16.4520074252
  H        -0.6025403365       11.5899847266       -1.5719325347
  H        -2.3641305279       11.4306116437       -1.0449048178
  H        -1.6939940206       10.2060291047       -2.0288098048
  S         5.4345121620       14.5940170512       -2.0904999556
  C         5.1083392080       17.2171927059       -2.4541152212
  H        -3.3494132075       12.3232551516       10.0823180791
  H        -4.4046219335       13.2088323605       11.0990960638
  C        -4.4486011755       13.9710866300        9.2690959330
  H         6.2944846618       12.9825099769       12.7280744083
  H         5.8924352241       12.9291442344       14.5383109621
  C         7.1674159169       14.3813263200       14.0285000086
  S         0.6221349730        5.6101378984       15.0411353638
  N         0.1125534898        6.0667987032       16.5328446257
  C        -0.1740086686        8.1815700655       17.8910628239
  H        -0.4599888731       10.1836928422       18.6043889068
  C         5.5953304326       15.3822982702       -3.6779883682
  N         5.5027996847       16.7141033406       -3.6902839567
  O         4.8408845047       18.3334885990       -2.1818340740
  H        -4.8175958728       15.0269172526        9.5000820760
  H        -3.7332716691       13.7971813658        8.3876511228
  C        -5.6858182359       13.0883424770        9.0381479974
  H         7.9176751831       13.7378247799       14.5039370225
  H         7.6251879271       14.8247938314       13.0979411387
  C         6.8850170266       15.4439655264       15.0773685715
  C        -0.5189556153        7.4287051627       19.0841023534
  S         5.9196804524       14.5560507640       -5.1806019962
  C         5.4578949537       17.4800864443       -4.8673694789
  H        -5.7817518310       12.8083871573        7.9599421717
  H        -5.6689332766       12.0497737182        9.4998887214
  C        -7.0178650856       13.8847180846        9.2564417265
  H         7.4860508058       15.2165947079       15.9234949317
  H         5.8591701119       15.4138630619       15.5500674857
  C         6.9999193520       16.8763956115       14.4541132914
  H        -0.2788240636        6.3908264444       19.1010486941
  C        -1.0420568056        7.8325011718       20.2808376933
  H         5.7929764603       17.0365512693       -5.8252134175
  H         6.0018794952       18.3191538108       -4.6334483884
  C         4.0321612671       17.6064639482       -5.3092202455
  H        -7.7013362309       13.5371139497        8.4457424306
  H        -7.0744568907       14.9917705261        9.1288646313
  C        -7.4922474212       13.6222993365       10.6518576285
  H         6.5837745661       16.9172600129       13.4265475622
  H         6.5180272558       17.5758141792       15.1349183676
  C         8.4234819312       17.3122209904       14.2323093767
  S        -1.4659701991        9.4591563933       20.6682329229
  C        -1.2896990232        6.8059038593       21.3645468937
  H         3.5580991819       16.6048158187       -5.6916128667
  H         3.9051654456       18.1441100229       -6.1878982910
  H         3.4579659757       18.1529710890       -4.5191254361
  H        -7.6439445148       12.5863218210       10.7891660713
  H        -6.8900264844       14.1646447964       11.3831809904
  H        -8.4211649888       14.1007098544       10.8323817041
  H         8.4816172685       18.3697629190       14.1441331428
  H         9.0335336043       16.8420594811       14.9905086259
  H         8.6139284224       16.8309666505       13.2889336414
  C        -1.9799382575        8.7980060053       22.2038355750
  N        -1.8588139095        7.4753975569       22.3723881896
  O        -0.8781861193        5.6609075117       21.3650686027
  S        -2.4125061406        9.8465899731       23.5541717634
  C        -2.1036858547        6.8437650501       23.7132820964
  H        -2.7722838174        5.9943488034       23.5893641514
  H        -2.7881868383        7.3933742706       24.3692406570
  C        -0.9622833370        6.6340724859       24.6095561709
  H        -0.0939830123        6.0860238050       24.1205066681
  H        -1.3852374971        6.1416329742       25.4819931328
  H        -0.6474103653        7.6681117811       24.8292559964
