352
i =
  H        -3.1322741071       15.3611291928       15.8026925650
  C        -3.0537513456       14.2692763280       15.8867426844
  H        -4.0262351492       13.7693275004       15.8935711141
  C        -2.1744616217       14.0785961860       17.1655672250
  C        -2.3452321543       13.7282720515       14.6085881919
  C        -2.9571014666       13.8833421520       18.4674842800
  H        -1.6064092764       13.2023649517       16.8370948171
  H        -1.5596961452       14.9842373409       17.1572205379
  H        -2.7064858654       14.2196180616       13.6928134958
  H        -1.2125100864       13.8931083715       14.6870681067
  H        -2.3920327843       12.6017233860       14.5255430741
  C        -1.9644351563       13.2584402331       19.4968599543
  H        -3.7592843678       13.2663764968       18.2339082035
  H        -3.3998666693       14.8856646254       18.6898901322
  C        -2.3438723066       13.5447260155       20.9566763916
  H        -1.7961677235       12.1755581424       19.4038383058
  H        -1.0258233389       13.8132085926       19.4779355000
  C        -1.3455460914       12.8873247251       21.8967034687
  H        -3.3374171940       13.2267643855       21.1520497389
  H        -2.3771440688       14.6441117339       21.0112587725
  C        -0.1641412023       13.7773802664       22.1577726833
  H        -1.9434377295       12.8418435115       22.7929386900
  H        -1.0501823466       11.8685839620       21.5856637693
  C         1.0567032260       13.0645819790       22.8467466524
  H         0.2398463347       14.2109677094       21.2577595586
  H        -0.4619576884       14.6085506467       22.7552653574
  C         1.2876711916       11.6796673839       22.1868126508
  C         0.6819602049       12.3911211503       24.1456202018
  C         2.2369210112       13.9630975678       22.8355300017
  C         1.1482196354       10.5911000743       22.9958380957
  C         1.7198016144       11.3458389947       20.8896361290
  C         0.6994320495       11.0360383796       24.2368333696
  C         0.2662156309       13.0345365101       25.3163246696
  H         2.6966995082       13.9688612212       21.8684955299
  H         1.9216772358       14.9761918789       23.1190781135
  C         3.3070914626       13.5465092102       23.7602222025
  S         1.6777086805        9.1705005595       22.3249598728
  C         1.9697941566        9.9609964331       20.8151120365
  H         1.8159100217       12.1019839255       20.1308327797
  C         0.4194858296       10.3920434527       25.3986636780
  H         0.3328472447       14.1056534375       25.2857200272
  C        -0.1185784035       12.3837523835       26.4284367106
  H         3.5062119419       12.4275617633       23.6606760877
  H         2.9743728820       13.8534365357       24.7482295782
  C         4.6419192973       14.1762165778       23.3955835186
  C         2.4996320357        9.2649800062       19.5814977490
  C        -0.0493939234       11.0497367700       26.5314041477
  H         0.3925668238        9.3286701843       25.3714176364
  C        -0.4887299768       12.8103417484       27.7227488236
  H         5.2381608174       13.5892423804       24.0481675654
  H         4.7460278605       15.1704866406       23.8470097758
  C         5.1229342577       14.2711206050       21.9766140791
  C         2.4257062609        7.8420542079       19.3698534877
  C         3.1610042203       10.1188279218       18.4957645698
  C        -0.4996175710       10.4250703254       27.8233179710
  C        -0.6837238990       11.7129817073       28.4848762377
  S        -0.7507257316       14.3071640171       28.5344979775
  H         5.9360742502       14.9562988419       22.0858219507
  H         4.4643780113       14.8119121586       21.3457849741
  C         5.4948228706       12.9260914546       21.3610437865
  N         2.0353543780        6.8414996789       20.2533348404
  C         2.7925848749        7.3106876289       18.1490710924
  C         3.5207736183        9.4839908856       17.3212027240
  H         3.2930939208       11.1921736530       18.7200934259
  C         0.5548844126        9.5641026093       28.4985980207
  C        -1.7664688675        9.6513517706       27.5524793294
  C        -1.0576761920       12.0912261369       29.8188957893
  C        -1.2238340905       13.4716814496       29.9499325430
  H         6.4837410924       12.6306018536       21.7758337254
  H         4.8350208835       12.1720040840       21.6163258362
  C         5.6458787554       13.1004929692       19.8118437294
  S         2.0483336278        5.4424612930       19.4900787132
  N         2.7340083041        5.9406739202       18.0919458429
  C         3.2604164808        8.0774850660       17.0588892220
  H         3.9469318509       10.0485600070       16.5625712899
  H         0.9175593530        8.8765302328       27.7727864662
  H         0.1224750567        8.9548934025       29.3202239809
  C         1.8377953859       10.3338013322       29.1380117823
  H        -1.7072715884        8.9669554883       26.7418198358
  H        -1.9547469266        8.9854746368       28.4666601513
  C        -3.0624146189       10.4757241835       27.2852686579
  H        -1.2994164679       11.3052069581       30.4999374055
  C        -1.5278694959       14.2284317492       31.2306279016
  H         4.8858103192       13.8007902127       19.3648968511
  H         5.4166406848       12.1868972254       19.2220724221
  C         7.1010468335       13.6417686654       19.3747804695
  C         3.6333870561        7.3933723408       15.7958704076
  H         2.3583680804       11.0164167667       28.5367519080
  H         1.5171564145       10.9575611360       29.9347382580
  C         2.9459838625        9.3246970622       29.6375906640
  H        -2.9523304604       11.1031898605       26.4471747820
  H        -3.3204021156       11.1495332139       28.1228890976
  C        -4.3018758759        9.6612474521       27.1806786341
  C        -1.6167292530       15.6297437268       31.3577701051
  C        -1.6657124824       13.4546404996       32.4596494345
  H         7.2926168309       14.4556621148       20.0560609436
  H         7.8868498403       12.8824479866       19.6566909577
  C         7.1405553317       14.0035973105       17.9207972627
  H         3.4324786698        6.3434431916       15.7675179124
  C         4.0604766047        7.8629506640       14.5638080962
  H         3.4787501335        8.8458343699       28.8174665822
  H         2.4925370235        8.6647324083       30.3164497346
  C         3.9617527994        9.9719506145       30.6287410848
  H        -4.1098111443        8.9263139890       26.4318398883
  H        -4.4888747691        9.0744746305       28.0313588678
  C        -5.5658885577       10.3865839272       26.6923169968
  N        -1.5611969979       16.5538490897       30.2885954744
  C        -1.9034147585       16.2557261704       32.5299870859
  C        -2.0596427442       14.1033782284       33.6630658467
  H        -1.7265459925       12.3530890018       32.3943339368
  H         8.1537857103       14.5022848985       17.7264034120
  H         7.1929173070       13.0178341046       17.4126886471
  H         6.3543417073       14.6160809830       17.5248898566
  S         4.2545149855        9.4583689983       14.0132120748
  C         4.2141272795        6.7330193145       13.6509610656
  H         3.9977180493       11.0756155632       30.7506668393
  H         3.6369491121        9.5915402619       31.6259757713
  C         5.4485123418        9.6366731145       30.3276690218
  H        -5.3276570839       11.3994386004       26.5883379765
  H        -6.2263748352       10.3030819829       27.5190084001
  C        -6.0235682787        9.9569797583       25.2923360718
  S        -1.6813642712       18.0572359656       30.8338827400
  N        -1.9286858391       17.6172582135       32.4042429653
  C        -2.2149145279       15.5556358544       33.7271688245
  H        -2.2437048616       13.4418443314       34.5285435912
  C         4.4932571769        8.6187199711       12.4508761724
  N         4.5248618966        7.2708369561       12.4464500687
  O         4.1077317484        5.5200433924       13.8622361874
  H         6.0012112430       10.5650797762       30.4534179534
  H         5.6906005061        9.3353307066       29.2847317531
  C         5.9325670982        8.4691394962       31.1823946676
  H        -5.2026881102        9.9760708820       24.5436909918
  H        -6.3636056378        8.8872808371       25.2407226025
  C        -7.1462534935       10.8216303566       24.7702173701
  C        -2.5995320245       16.2947526395       34.8758186144
  S         4.7189052676        9.4017650327       10.8537415823
  C         4.4717226826        6.5106915562       11.1924621521
  H         7.0068103953        8.4429646375       31.1307270429
  H         5.6595923727        8.5359598871       32.2250815445
  C         5.5622021566        7.1116260267       30.6320195552
  H        -7.0391456950       10.9717552337       23.7355696450
  H        -7.2141107655       11.8451174358       25.0878609740
  C        -8.5329078838       10.1869961457       24.9917830936
  H        -2.2560934200       17.3271017485       34.7469711251
  C        -3.1889249120       15.9277801830       36.0704983865
  H         5.1131381277        6.9803100692       10.4163628584
  H         4.9148793960        5.5064846369       11.3322601628
  C         3.0466919866        6.4277974411       10.6127028886
  H         5.3563134684        7.2025202240       29.5625056481
  H         4.6486491940        6.7219510093       31.1184716587
  C         6.7028784027        6.0428882841       30.8831268378
  H        -9.1336587900       10.4126258464       24.1421019621
  H        -8.6235277138        9.0661560094       25.0331320023
  C        -9.2599538197       10.8054268934       26.1491550311
  S        -3.4600844715       14.3569706051       36.7444635526
  C        -3.3841174410       17.0969069103       36.9783258253
  H         2.5043678698        7.3798934971       10.4681429763
  H         3.1607246936        5.9129182929        9.7031130751
  H         2.3288420115        5.7970632510       11.2157099944
  H         6.7454821506        5.8393771634       32.0021859357
  H         7.6448313363        6.4433651167       30.5490756031
  H         6.4120674297        5.1435860515       30.4229100275
  H        -9.2390171710       11.9463009436       26.0419211742
  H        -8.6150958549       10.7143396576       27.0007823000
  H       -10.2121371061       10.3443856302       26.2711127022
  C        -3.9688491669       15.2296955347       38.1998650880
  N        -3.8617529521       16.5751702605       38.1438752175
  O        -3.0405976505       18.2284202191       36.8152368445
  S        -4.2554458217       14.4411352645       39.8003391119
  C        -3.9371143524       17.4278578345       39.3190076953
  H        -4.2528471515       18.3578170032       39.0188442176
  H        -4.7489645404       17.1236486616       40.0624999048
  C        -2.6458136499       17.3554058172       40.0808791466
  H        -2.6494243135       17.8969345350       41.0778480404
  H        -2.3223176403       16.2668579626       40.3579374686
  H        -1.7715720079       17.8077181964       39.6248085358
  H         7.1963251224       11.1252698458        3.6397498815
  C         7.8500326990       10.3309946115        3.4829454305
  H         7.2931954471        9.3796654353        3.6463048407
  C         8.9204340828       10.4902149963        4.5548501355
  C         8.4645558211       10.2975050431        2.0830779690
  C         8.2596240954       10.8047671639        5.8822602642
  H         9.5538427178        9.6267585617        4.7618705900
  H         9.5732252769       11.3542665042        4.3212415399
  H         8.9260859306       11.3048212081        1.9252045565
  H         7.9256012946        9.8511682934        1.2188303448
  H         9.3438401104        9.6291181982        2.2209792872
  C         7.7921557762        9.5316463171        6.5656930647
  H         8.9346689350       11.3992753887        6.5760613718
  H         7.3964279859       11.3745154020        5.6823051091
  C         6.8732632437        9.8104187474        7.7814376263
  H         8.7228944311        9.0029922991        6.8148042029
  H         7.3550974470        8.8009585554        5.8189958615
  C         5.6630007867       10.6452426291        7.4177998238
  H         7.4387252402       10.4334384912        8.4389414250
  H         6.6801920892        8.9243793145        8.3493017252
  C         4.6149978756       10.0235908213        6.5155506756
  H         5.1073454355       10.8250963958        8.2669470228
  H         5.8915150034       11.6968742244        7.1584270866
  C         3.3914931803       10.9603199906        6.5181392163
  H         4.4390458130        8.9889280365        6.8325404085
  H         5.0902405072        9.9375608735        5.5599239077
  C         3.7079279272       12.3522430132        5.8683589383
  C         2.9467784557       11.6857272523        7.7791589618
  C         2.2048325506       10.2321561315        5.7638283314
  C         3.4530531354       13.4594147453        6.6683118486
  C         4.2332637264       12.7943001982        4.5844090321
  C         2.9689469623       13.0445175377        7.9065800986
  C         2.5701249071       11.0598679502        8.9538199882
  H         2.5239326515        9.5335633365        4.9837498653
  H         1.5822237417        9.5953312204        6.4545496953
  C         1.2094284929       11.2129174874        5.0420896449
  S         3.8343397726       14.9697595740        5.8945035067
  C         4.3377361925       14.1751976534        4.5067401925
  H         4.4310334324       12.0443326228        3.8934938922
  C         2.6622755793       13.6200862558        9.1021148392
  H         2.6046341926        9.9830339065        8.9013006252
  C         2.1893914624       11.6420661236       10.1711358275
  H         1.4646813792       11.7295741063        4.1114219839
  H         0.9432953417       11.9400223672        5.8061341163
  C        -0.0452674404       10.4791260565        4.5911046983
  C         4.8159115556       14.9593505350        3.3195424066
  C         2.3186183195       12.9704286214       10.3337323128
  H         2.7580182880       14.6935307724        9.1190067457
  C         1.7761305200       11.1769703733       11.3705053164
  H        -0.8888986422       11.2096107824        4.5111091327
  H        -0.3845017023        9.7982634885        5.3584579083
  C         0.1297850929        9.7678951629        3.2962199983
  C         4.7334571306       16.3526712906        3.1299635442
  C         5.2582617149       14.2193358926        2.0829147536
  C         2.0573012029       13.5993249528       11.6212996000
  C         1.6523961300       12.2269922772       12.2321876712
  S         1.3899324705        9.7154826730       12.1362741686
  H        -0.5643563726        8.9357109824        3.5949651194
  H         1.1639990164        9.5408582047        3.1940767328
  C        -0.3039466898       10.5525637216        2.0909748053
  N         4.3215548677       17.3308216689        4.0673797303
  C         4.9108049753       16.9501462466        1.8739167837
  C         5.5791937255       14.8066560983        0.8494920880
  H         5.2835756710       13.1228274129        2.1320733216
  C         0.7714047674       14.4809449096       11.4890676672
  C         3.2477055817       14.2752774732       12.3706304112
  C         1.1013700187       11.8916167867       13.4918153779
  C         0.8758113618       10.5306205257       13.5379658768
  H        -1.4084733047       10.5664243152        2.1660969403
  H         0.0700575030       11.5699061678        2.0713781352
  C         0.0246928760        9.7721552234        0.8081898899
  S         4.1142384779       18.7690969527        3.2644695235
  N         4.8030221814       18.3350003812        1.8360298119
  C         5.3101152204       16.2687880119        0.7134032512
  H         5.9822006859       14.2199655464        0.0171591241
  H         1.0280533017       15.3861212190       10.8582525598
  H         0.6269960311       14.8372793032       12.5063836832
  C        -0.5483299903       13.7758295794       11.0116966823
  H         3.7611249396       14.9155273346       11.6722216065
  H         2.7638422091       14.8899147456       13.1382101600
  C         4.1553643771       13.2775624912       13.0369031660
  H         0.9112122466       12.6355119003       14.2850052312
  C         0.3730809829        9.7784214904       14.7291213826
  H        -0.5599740096        8.8678894497        0.7707629964
  H         1.0139090998        9.4950656181        0.9467382363
  C        -0.1404588084       10.4850794851       -0.5109513474
  C         5.4630821762       17.0109125909       -0.5137576414
  H        -0.3825260987       13.2942755845       10.0166328389
  H        -0.7620681785       12.9779708996       11.7054204479
  C        -1.7962960618       14.6190462332       10.8483521195
  H         4.5466584619       12.5791811549       12.3229035650
  H         3.6053210212       12.6344839469       13.7106706972
  C         5.2906091917       13.9104646153       13.8236348866
  C         0.3424690904        8.3734488565       14.8510191548
  C         0.0058832332       10.5242477843       15.9076323993
  H         0.4413974257       11.4712266495       -0.5937260946
  H         0.3929162157        9.9269335296       -1.2456122706
  C        -1.5993135281       10.5550479218       -0.9604617942
  H         5.2878444149       18.0783372041       -0.4616305951
  C         5.7521025961       16.5515709806       -1.7863815209
  H        -1.6315938556       15.4444589078       10.1554679588
  H        -1.9305570216       15.1723962403       11.8411649829
  C        -3.0575323947       13.7983138543       10.4000970075
  H         4.9218603708       14.7713398640       14.4080955402
  H         5.7003376880       13.2109008207       14.5805949993
  C         6.3865534967       14.3832498808       12.8958539562
  N         0.7630210758        7.4963342719       13.8470435297
  C        -0.0752219138        7.6973642826       16.0058843523
  C        -0.3321476520        9.8322679124       17.0677288847
  H         0.0825744600       11.6493089151       15.8920417104
  H        -1.7355610212       11.0006807156       -1.9463877648
  H        -2.2565129259       11.2809315123       -0.5073245031
  H        -2.0176841430        9.5266105417       -1.0405491731
  S         5.9989962588       14.8908579107       -2.3315467663
  C         5.7804590512       17.5333859332       -2.9932773510
  H        -2.6102129231       12.9882236121        9.7664383018
  H        -3.3987228029       13.1747587230       11.3209544478
  C        -4.1870847436       14.5479497255        9.6623585110
  H         6.1091833189       15.0420615223       12.0335195924
  H         6.6831902333       13.4727870296       12.4980500531
  C         7.5084488838       15.0577340412       13.8282599265
  S         0.4988369685        5.9498940688       14.3867454365
  N        -0.0835677069        6.3451770608       15.8157380429
  C        -0.4892463468        8.3873603629       17.1780159677
  H        -0.4422724257       10.4154161314       18.0356740528
  C         5.9688906183       15.5116902821       -3.9849172012
  N         5.9414480566       16.9153462265       -4.1672322966
  O         5.6166539617       18.7729718796       -2.8383158183
  H        -4.6218932572       15.3547113179       10.2646999335
  H        -3.7871149498       15.0478403624        8.7482764890
  C        -5.2813336419       13.6238879837        9.2190748433
  H         7.3277396679       14.9048979920       14.8238323748
  H         8.4762452527       14.5587279593       13.7008795669
  C         7.5966557279       16.6104096739       13.6036803697
  C        -0.6967520805        7.5902530236       18.3279911077
  S         6.2593284733       14.5039401173       -5.3927972039
  C         5.6892970332       17.6377705352       -5.4102523774
  H        -4.9347907805       13.3583251412        8.2460447331
  H        -5.3446100172       12.7743630385        9.8222766659
  C        -6.6082424039       14.2969435454        8.8064881192
  H         7.0719175786       16.8494806789       12.7242648816
  H         8.6997213210       16.7008542122       13.4148130469
  C         7.0510757899       17.5391763018       14.6883072013
  H        -0.4213235265        6.5778961350       18.2836361132
  C        -1.1578157731        7.8760894080       19.5947956745
  H         6.2674554475       17.0800722135       -6.1504379802
  H         6.1517342540       18.6686020989       -5.2494064452
  C         4.1820666217       17.7812141373       -5.7122968538
  H        -6.8620323620       13.4847771252        8.0758558120
  H        -6.4119942490       15.2053249750        8.2623659233
  C        -7.7439816482       14.3691140602        9.8790670471
  H         6.9402393799       18.6123110443       14.3686051994
  H         6.0589020672       17.2199195887       15.0473254962
  C         7.9645517719       17.6717167103       15.8299760414
  S        -1.4282341683        9.3387415507       20.3613757307
  C        -1.4375758170        6.6798922357       20.5407865761
  H         3.6945788212       17.4338017376       -4.8037478377
  H         3.8005332258       17.2033293329       -6.5222412579
  H         3.8289104457       18.7934260474       -5.8588131336
  H        -8.1155269677       13.3738949018       10.0794170695
  H        -7.1930666380       14.6967306025       10.7179197338
  H        -8.6337322223       15.0775434712        9.7417799091
  H         8.1367184359       16.7998254457       16.4264385406
  H         8.9500637475       17.9998784138       15.5077718224
  H         7.5348241763       18.4853135022       16.3806583333
  C        -1.7590133571        8.4751709466       21.9160041772
  N        -1.7349623088        7.1376358741       21.7968924640
  O        -1.2030526697        5.5483045086       20.1909755291
  S        -2.1841352218        9.1915106219       23.4521091051
  C        -1.9706755443        6.1263832957       22.8238027916
  H        -2.1714689037        5.1709553293       22.4226450881
  H        -2.8718102550        6.3209596612       23.3679644835
  C        -0.7101419217        5.9555560931       23.6676657608
  H        -0.7391246302        6.4983092059       24.6019695079
  H         0.2243206839        6.1589699440       23.1625807588
  H        -0.6834833577        4.9391507464       24.0431651792
