352
i =
  H        -3.4472356651       14.9796572653       16.3673978299
  C        -3.0454767750       14.0177623588       16.6055388692
  H        -3.7077348112       13.3696919273       17.2590308632
  C        -1.7194344046       14.2216862545       17.3510288198
  C        -2.8494448903       13.2775040752       15.2795946203
  C        -1.8534070451       14.7973550104       18.7459467168
  H        -1.1887521395       13.2387851298       17.3503737892
  H        -1.0365916667       14.9407761858       16.8473810350
  H        -2.6894375149       12.2844610565       15.4368843078
  H        -3.7465159428       13.2252741820       14.6985518665
  H        -2.1375606779       13.8099308261       14.6646958126
  C        -1.8257127072       13.5995790323       19.7397198929
  H        -2.8464949907       15.1895333699       18.7205741370
  H        -1.3104121738       15.6596900775       18.9978088409
  C        -2.0800280374       13.9848806841       21.1518877812
  H        -2.4682445828       12.8790432734       19.3389251048
  H        -0.8193124409       13.1286901004       19.7066389182
  C        -1.1765260424       13.2099450306       22.1333236843
  H        -3.1421196860       13.7903448572       21.3127710528
  H        -1.8921723108       15.0144902109       21.3616564118
  C         0.0777525007       14.0153781949       22.6167319913
  H        -1.8378083542       12.9458527396       22.9543092617
  H        -0.9385061119       12.2293696642       21.6915624513
  C         1.1070788329       13.0889889820       23.3665655637
  H         0.6957971688       14.3960918280       21.8434185334
  H        -0.1863592017       14.8239011214       23.1955929200
  C         1.3520133572       11.7473886775       22.7568568577
  C         0.5429372765       12.4342406204       24.6172191000
  C         2.5364350875       13.7362163647       23.6047604760
  C         1.0635804552       10.6616071529       23.5565980386
  C         1.9459138981       11.3034072295       21.5563063522
  C         0.4860324544       11.0925113297       24.7647254261
  C         0.0319240334       13.0508623419       25.7105515496
  H         2.9332896971       14.0938345138       22.5814329707
  H         2.4014047474       14.6525429309       24.2472325742
  C         3.5870283290       12.7635278517       24.2090287306
  S         1.4823554864        9.1603374244       22.9046172201
  C         2.0173063130        9.9641625290       21.5055203342
  H         2.3573760663       12.0360336067       20.8486783038
  C         0.0397084743       10.4616953341       25.8864880948
  H         0.0098620776       14.1277753998       25.6820706474
  C        -0.3313981996       12.4516752413       26.8765314187
  H         3.6752193033       11.8348572453       23.6693106864
  H         3.1938237678       12.3011789082       25.1298467357
  C         4.8958018553       13.4857977241       24.4573983558
  C         2.4673972518        9.2618074941       20.3076413732
  C        -0.3456831217       11.1084267788       27.0528548008
  H         0.1231197015        9.3930287784       25.9265267796
  C        -0.5972156156       12.8216683597       28.1863502145
  H         5.4894656515       12.8883766857       25.1200174320
  H         4.8275789133       14.3588450740       25.0711823537
  C         5.7665710500       13.7487222470       23.2253522847
  C         2.4737961699        7.8860318896       20.0519567493
  C         2.8612055838       10.0874815057       19.1600691710
  C        -0.6544129390       10.3902739075       28.3063627927
  C        -0.8220317547       11.7406410678       28.9680623504
  S        -0.7761372471       14.3868699369       29.0087394280
  H         6.3818300117       14.6019946943       23.4886676033
  H         5.1792256337       14.2473226272       22.4206758932
  C         6.4126042096       12.5498273309       22.5676612758
  N         2.3258925591        6.8282574418       21.0208707731
  C         2.7835147177        7.3061085931       18.8348007851
  C         3.2700738913        9.5690413010       17.9458566203
  H         3.0801805756       11.1295569946       19.2286196844
  C         0.4400722785        9.6323603489       29.1041640980
  C        -1.9582713828        9.5874070995       28.1424601156
  C        -1.0695929745       12.1635981061       30.3016202454
  C        -1.1536568584       13.5443485512       30.4595637580
  H         7.3694491804       12.3660879520       22.9806637348
  H         5.8405187103       11.7123993520       22.8119046012
  C         6.4392885229       12.4311551886       21.0194214512
  S         2.2656803085        5.4297660509       20.2436061719
  N         2.7564779552        5.8832394231       18.7512856829
  C         3.1393274687        8.1305316142       17.6890257096
  H         3.4754668180       10.2804731815       17.2027246840
  H         0.8104211586        8.7877374971       28.6266626493
  H        -0.0075512386        9.4143371694       30.0959370992
  C         1.7228263133       10.3369615682       29.3325385401
  H        -1.7451034040        8.6536402163       27.6162041486
  H        -2.3781151111        9.4122711156       29.1492657958
  C        -3.1490346559       10.3320015398       27.4811959999
  H        -1.2164272782       11.4261552924       31.0056960751
  C        -1.6189524182       14.3008105852       31.6546617544
  H         5.5045434206       12.2996526886       20.4783011297
  H         7.1332615018       11.5880713157       20.7334766035
  C         7.0506388140       13.6331160961       20.2533032646
  C         3.4539427964        7.5675033428       16.3997890553
  H         2.0599045384       10.7807680630       28.3672614580
  H         1.6223461312       11.1507653241       30.1131038193
  C         2.7887986866        9.2824097847       29.6962091722
  H        -2.9057762785       10.6550250041       26.4670982541
  H        -3.3761883936       11.3820282358       27.9008659491
  C        -4.3898213327        9.4921983400       27.4839901679
  C        -1.7776430769       15.6772885127       31.6873430282
  C        -2.0184614271       13.5405617362       32.8721875080
  H         6.5770021113       14.5127610309       20.5204973887
  H         8.0226233238       13.6524650798       20.6880113683
  C         7.1978413393       13.5778694964       18.7616110456
  H         3.3663947381        6.5189760277       16.4786631205
  C         3.7427761542        8.0242408706       15.1652818877
  H         3.0516800240        8.6442500419       28.8531632419
  H         2.2352530938        8.6373034034       30.2935597703
  C         4.0391817831        9.8803822699       30.4591548078
  H        -4.2907600752        8.6573186329       26.8098377039
  H        -4.5167216519        9.0643307297       28.4574120910
  C        -5.5987455705       10.4164164636       27.1419115961
  N        -1.3726180710       16.5680423099       30.7046506592
  C        -2.1034165313       16.3588332595       32.9197724963
  C        -2.3357814964       14.1949632029       34.0529113362
  H        -1.9433861131       12.4278683908       32.8336856431
  H         7.8430968406       14.3669804941       18.3564718652
  H         7.6478477378       12.6075248232       18.5223025726
  H         6.1981740287       13.7432747929       18.3314401953
  S         4.0337942493        9.6245518073       14.6927822905
  C         3.7668403369        7.0473801312       14.1063940133
  H         4.1298296629       10.8949843399       30.0418357367
  H         3.8648728128       10.0519866057       31.4784912606
  C         5.3056930921        8.9271766544       30.2310530087
  H        -5.1936328771       11.3179688740       26.5682427117
  H        -5.9650656653       10.7993572704       28.0762588519
  C        -6.6154868223        9.6986557226       26.2501176196
  S        -1.5222669020       18.1088841392       31.2567435512
  N        -2.0499882925       17.8099632006       32.7601566894
  C        -2.4343639258       15.6605164689       34.0927033922
  H        -2.7168868556       13.6496548110       34.8912519753
  C         4.2048863456        8.9205025342       13.0568583100
  N         4.1257754195        7.5855786121       12.9770944951
  O         3.3796974219        5.8952473745       14.3777543995
  H         6.2786797533        9.4434205634       30.3457190710
  H         5.3287120862        8.5912212616       29.1962712547
  C         5.2931229616        7.7538931254       31.2382418787
  H        -6.0901613943        8.9678305010       25.6014704790
  H        -7.3125380767        9.0569657902       26.9198791875
  C        -7.4642042196       10.6552983850       25.4194751081
  C        -2.7169234516       16.3736483231       35.2934409435
  S         4.6135208517        9.7499092506       11.6508278924
  C         4.2487420813        6.7638913926       11.7684477200
  H         5.7601971007        8.0469065343       32.1915781776
  H         4.3201022703        7.3918274437       31.5406966481
  C         6.1006384499        6.5287855238       30.8075748618
  H        -6.8059336736       10.9791811698       24.5963177072
  H        -7.8758946579       11.4889111240       25.9628346026
  C        -8.6958147571        9.9896556812       24.8030069425
  H        -2.5120495237       17.4147260592       35.1895271148
  C        -2.9673967378       16.0073827671       36.5971869912
  H         4.8703760071        7.2262464955       10.9060528610
  H         4.5962834960        5.7420317741       11.9087999702
  C         2.7498932917        6.5877728550       11.2663946402
  H         7.0235786813        6.7691329371       30.2599583670
  H         5.3554284522        6.0315435713       30.1853709638
  C         6.6778409804        5.7199540662       31.9510078785
  H        -8.9611212490       10.6750901199       23.9653676972
  H        -8.5139736654        9.0573537313       24.2509322986
  C        -9.7906428499        9.8023884222       25.7928128770
  S        -3.3227276758       14.3874863699       37.1536757885
  C        -3.1444198123       17.0540319349       37.6188275152
  H         2.7936571261        6.1035500518       10.2551400126
  H         2.1458819606        5.9933749690       11.9134088305
  H         2.2632536517        7.4881736719       11.1552061329
  H         7.5023963404        5.1670960420       31.5045620337
  H         5.9788786416        4.8999192958       32.2395383480
  H         6.9903568285        6.3269897735       32.8144625699
  H        -9.5463559654        9.1762613486       26.6254392291
  H       -10.6358178567        9.2762775375       25.3183309141
  H       -10.2398743634       10.7600908114       26.0866862767
  C        -3.6069785875       15.1941053051       38.6877196698
  N        -3.5743967816       16.4960671229       38.7424978686
  O        -3.0476144818       18.3106115182       37.3962274565
  S        -4.0018207817       14.3577377926       40.2194659747
  C        -3.6592251830       17.2996123937       39.9665917801
  H        -3.8646077234       18.3702399770       39.7320014391
  H        -4.4512710932       16.9142152034       40.5888980084
  C        -2.3224228370       17.1506824751       40.6777319200
  H        -2.3490400575       16.4452655897       41.5377006820
  H        -1.6139603395       16.6867417401       39.9526253328
  H        -1.9237740971       18.1376896657       40.8743821346
  H         7.9023947927       10.9387446148        3.1026812641
  C         8.5641567309       10.0499433746        3.2562726344
  H         7.9174705323        9.2033768156        3.4734326454
  C         9.4318472537       10.2993446537        4.5218632977
  C         9.3784473683        9.8984193113        2.0238859099
  C         8.6152843138       10.7006386090        5.8192165967
  H        10.1352184061        9.4794983746        4.7134425841
  H        10.1665722953       11.1139639617        4.2801128956
  H         9.7674648269       10.9158563588        1.9062137641
  H         8.6509323122        9.7004831338        1.2399298369
  H        10.2055768272        9.1989833777        2.1058779532
  C         7.3926343195        9.8379261679        6.2126130571
  H         9.4650069402       10.6049488568        6.6100908059
  H         8.2625043830       11.6931012299        5.7984639898
  C         6.7977477387        9.9381254435        7.6394222881
  H         7.6173762628        8.7914234916        5.9436467540
  H         6.5558893220        9.9947947042        5.5381904665
  C         5.5413627829       10.7736014354        7.7477442784
  H         7.5120344791       10.4053430988        8.2812958687
  H         6.5690424866        8.9593387272        8.0157325942
  C         4.2177915329       10.0502982094        7.5990734700
  H         5.4084816492       11.0772448260        8.7558015937
  H         5.5791215619       11.6688684767        7.0531520630
  C         2.9537372443       10.8872172362        7.4373546519
  H         4.1709740639        9.1944056217        8.2851953309
  H         4.3736986531        9.6685727001        6.6047067268
  C         3.1870946992       12.2216377355        6.6768394342
  C         2.4836567338       11.6014661698        8.6457760092
  C         1.7494705445       10.1556141456        6.7132847045
  C         3.0144286271       13.3286943159        7.4829006755
  C         3.6280922554       12.7076893821        5.4305598109
  C         2.5218768819       12.9579761897        8.7494883189
  C         2.0494744391       10.9353376880        9.7988004080
  H         2.0130239377        9.7160642916        5.7565210725
  H         1.3993685856        9.3296564261        7.3545210958
  C         0.4587666061       11.0411819429        6.4180070688
  S         3.5419418769       14.8083925785        6.8068009790
  C         3.8176694826       14.0420264538        5.3820351531
  H         3.8005952854       11.9947357668        4.6430792940
  C         2.1469717159       13.5582917187        9.9439081878
  H         2.0213261295        9.8305108873        9.8486632605
  C         1.6196839433       11.5336220582       10.9385095645
  H         0.7173981288       12.0315597065        6.2037076941
  H        -0.1130189348       10.9855251197        7.3593107068
  C        -0.5371284138       10.5019893593        5.3237592690
  C         4.3277410388       14.7779743098        4.1417094703
  C         1.6492015932       12.8836252027       11.0719175030
  H         2.3994638534       14.5920243683        9.9736215316
  C         1.1612828559       11.1368218632       12.1645409270
  H        -1.4754077637       11.0552002182        5.4084477543
  H        -0.6772944968        9.5011429710        5.5692993355
  C        -0.0057385594       10.7981502103        3.8946419391
  C         4.3252295840       16.1417958515        3.9072007792
  C         4.6852505200       13.8603210725        2.9885776864
  C         1.1356393743       13.5382988672       12.3247687696
  C         0.7558262442       12.2345491398       12.9005915863
  S         0.8591240831        9.5959123465       12.9012254829
  H         1.0896354802       10.6874144898        3.8805258482
  H        -0.2504379186       11.8103427728        3.6588877359
  C        -0.5242456691        9.8475965203        2.8525229573
  N         4.0002676372       17.0553431876        4.8470774938
  C         4.5779342899       16.7511017071        2.7121709833
  C         4.9568710748       14.4991719666        1.7574874423
  H         5.0311109434       12.8265046220        3.1602682261
  C        -0.0658627021       14.4700611553       12.0960447981
  C         2.3008055979       14.2208723922       13.1121227354
  C         0.2655598126       11.7702504744       14.1541153256
  C         0.4017949009       10.4303600863       14.3332324636
  H        -0.0457502601        8.9342559005        2.9770398058
  H        -1.5690526146        9.8571676849        3.1206195985
  C        -0.4306358342       10.4691886668        1.3843612540
  S         4.1964054062       18.5592877806        4.2972835818
  N         4.5812340160       18.1366023520        2.7893617209
  C         4.9420121538       16.0350875603        1.5726323121
  H         5.4458996538       13.9418026036        1.0010625336
  H         0.2401377038       15.1568532059       11.3221278367
  H        -0.3851819333       14.8784139648       12.9984803901
  C        -1.4235275951       13.7302054282       11.6623288588
  H         2.7409519490       15.0436616761       12.5562895996
  H         1.8492417301       14.8164027616       13.8931309457
  C         3.4002791123       13.2311508378       13.4282943605
  H        -0.0689441715       12.4673427287       14.9369172996
  C         0.2391125761        9.6623232630       15.6108811888
  H         0.4080980852        9.9915233322        0.7733555161
  H        -0.3348826597       11.5487824268        1.3485055058
  C        -1.6566690654       10.2761772390        0.4410888010
  C         5.3052648541       16.7214451866        0.3093482799
  H        -1.0552851509       12.9344376354       10.9940832041
  H        -1.9009356666       13.1748684387       12.4823872905
  C        -2.4491970178       14.6704274121       11.0128127776
  H         3.5671029633       12.4702612099       12.6397024189
  H         3.0181434521       12.6722609674       14.3124034715
  C         4.7070646669       14.0508834586       13.7306314613
  C         0.1125529118        8.2787432358       15.7728484731
  C         0.0284015863       10.4108329948       16.8789966031
  H        -1.7712410581        9.2314031425        0.4760644539
  H        -2.5306178090       10.7085406818        0.8504510763
  C        -1.3283550202       10.7766849147       -1.0153429877
  H         5.3913342542       17.8415135362        0.3548326046
  C         5.4316538385       16.3785764279       -0.9895593422
  H        -2.0155815874       15.3372900618       10.2941555081
  H        -2.8150843948       15.2368670140       11.8949493994
  C        -3.4564239722       13.9088289524       10.1437093316
  H         4.9788943396       14.6350957961       12.8377572848
  H         4.6957254447       14.6924347603       14.6341872367
  C         5.9483093114       13.0743268428       13.7533968630
  N         0.3434919554        7.3737546047       14.7575358193
  C        -0.0738481208        7.7165218205       17.0306123740
  C        -0.3344460059        9.8210908005       18.0890774461
  H         0.2446623497       11.4269542055       16.8653288323
  H        -0.8393778450       11.7216619909       -1.0134916690
  H        -2.0926468373       10.8607941570       -1.6802664242
  H        -0.6793717659       10.0671000736       -1.5502042756
  S         5.3206989771       14.7961539832       -1.6519791678
  C         5.5918555344       17.4619051464       -1.9642995871
  H        -3.6859042817       14.6733097044        9.4133741853
  H        -3.1011541381       13.0282450195        9.5392402392
  C        -4.5906840830       13.4938540013       11.0632883251
  H         6.4059273428       12.8601762792       12.7735984107
  H         5.6693561671       12.0964735478       14.1025160171
  C         6.9452395072       13.6243211528       14.8257653587
  S         0.1655145416        5.8471419466       15.3812095979
  N        -0.1766369640        6.2865670846       16.8946387092
  C        -0.3976641239        8.3224395813       18.2043399719
  H        -0.4036442855       10.4952546961       18.9298421785
  C         5.6433592483       15.6068285274       -3.1908625017
  N         5.8625289413       16.9427432387       -3.1632833252
  O         5.6981022348       18.6767634398       -1.7766187806
  H        -4.1388808749       12.6716282734       11.6681999155
  H        -4.8835810512       14.3558348113       11.6846367500
  C        -5.8887227816       13.0518527417       10.4307055983
  H         6.4033853527       13.7143536134       15.7418459220
  H         7.7860666072       12.9316597358       14.9500311512
  C         7.6105099744       14.9466164363       14.3119307574
  C        -0.7760950011        7.5603463902       19.3388982603
  S         6.1264186383       14.7370951438       -4.6695680216
  C         5.9473548389       17.6935284339       -4.3988774819
  H        -5.6418291350       12.1174301440        9.9009624317
  H        -6.6134274855       12.8165099751       11.1747320784
  C        -6.5655564061       14.0775674659        9.5314029851
  H         7.3034371610       15.1040723584       13.2921878428
  H         8.6561844479       14.8866600110       14.3011735743
  C         7.3693333647       16.1590908669       15.2130057050
  H        -0.4150365809        6.5222909462       19.3326128843
  C        -1.2694847381        7.8833947982       20.5725364851
  H         6.5846885484       17.2655695498       -5.1894116235
  H         6.4225719482       18.6408458470       -4.2164769119
  C         4.5594153983       17.9403751094       -4.9993313727
  H        -5.7894238717       14.3045120949        8.7220494339
  H        -6.8764536839       14.9904035862       10.1236527388
  C        -7.8103706175       13.5144418313        8.8141561179
  H         6.3737282564       16.5739532123       14.9504261368
  H         7.3468556053       15.8598407167       16.2764689261
  C         8.3645629296       17.3164377392       15.0307929883
  S        -1.9345781869        9.4604599745       20.9452147503
  C        -1.3520926737        6.9047591785       21.6540572347
  H         4.3663409636       17.1632350754       -5.6795830368
  H         4.4360269360       18.9498979001       -5.4883200929
  H         3.7296710599       17.9460972166       -4.2771975665
  H        -7.6014304182       12.4832535727        8.5526178346
  H        -8.5996556381       13.5929318697        9.5341133711
  H        -8.0928677236       13.9099991142        7.8539966682
  H         9.4228316476       16.9265085776       14.8803003328
  H         8.1012430364       17.8824828831       14.1842364522
  H         8.4711184604       17.9745690149       15.9428732704
  C        -2.4432797894        8.6594332692       22.4674197225
  N        -2.0732899425        7.3680822551       22.6559801147
  O        -0.8926153650        5.7653714282       21.5811258620
  S        -3.2824022516        9.5016975287       23.7822813566
  C        -2.2407763265        6.5141252587       23.8244399580
  H        -2.1554125642        5.4453639571       23.6136320153
  H        -3.2044469492        6.7230823747       24.2325192405
  C        -1.1598240367        6.8203085292       24.8273792635
  H        -0.3619170606        7.4663163286       24.4704973209
  H        -0.7461235712        5.9108098648       25.2223477585
  H        -1.4338623896        7.4190991367       25.7226065700
