352
i =
  H        -3.7666447487       14.9966179897       16.2168123174
  C        -3.1364647631       14.1870297612       16.4761843525
  H        -3.6440618368       13.2355913545       16.5967443908
  C        -2.1866512286       14.4497023675       17.5891712952
  C        -2.2843910375       13.9492024417       15.1084282290
  C        -2.8390191873       13.9628173171       18.9661235753
  H        -1.1974971734       13.8933567039       17.6028485651
  H        -2.0784185847       15.6161826626       17.8174851008
  H        -3.0883175581       13.8192790620       14.4000721185
  H        -1.5868478241       14.7852172115       14.9438946356
  H        -1.7384122978       13.0004689504       15.2420852248
  C        -1.7450016523       13.8453473791       20.0143955249
  H        -3.3589750578       12.9787001359       18.8064552446
  H        -3.5927368467       14.7129244836       19.3343822009
  C        -2.2895114077       13.7241012420       21.4444842006
  H        -1.1613482877       12.9013814705       19.7155970813
  H        -1.0040285049       14.7529040556       19.8872926086
  C        -1.3086145935       12.9763944973       22.3824038130
  H        -3.2574602452       13.1386590446       21.5654747871
  H        -2.4228496148       14.7185042107       21.9221483758
  C         0.0042531200       13.7762813063       22.7260570735
  H        -1.7788368948       12.7772968890       23.3656618603
  H        -0.9209341056       11.9945968501       21.9527744524
  C         1.2184243516       13.0499403010       23.4240276884
  H         0.2579465551       13.9337498123       21.7127370524
  H        -0.3623466974       14.7275221297       23.2459411122
  C         1.5623462593       11.7582770906       22.7013628880
  C         0.7244319326       12.2833590551       24.5912969235
  C         2.5114994161       13.9487466540       23.6013892958
  C         1.3393137209       10.5767641090       23.4341802567
  C         2.0887641409       11.4626693744       21.4446605668
  C         0.8600478243       10.9461464388       24.6367913644
  C         0.1089433318       12.9853366228       25.6819795104
  H         2.6342193019       14.1656313730       22.5528650915
  H         2.3147701128       14.8525554601       24.2645886399
  C         3.7871873964       13.2299200238       24.1388480118
  S         1.6454666596        9.1194744759       22.5868528582
  C         2.0712170151       10.1419098330       21.2173116891
  H         2.2218137603       12.2453463038       20.7720650449
  C         0.5156763463       10.2674870567       25.7636589260
  H        -0.1382069652       14.0781913290       25.6575903205
  C        -0.2567012028       12.2850105524       26.8201244400
  H         4.0057203252       12.2101275739       23.7730854721
  H         3.2397826846       13.0842628563       25.0876236458
  C         4.9269897738       14.2060356872       24.1389114698
  C         2.3948420653        9.4115652517       19.9691864012
  C        -0.0526088010       10.9081186976       26.8866490179
  H         0.5174135817        9.2035836728       25.7987447318
  C        -0.7630654194       12.5908358691       28.0581490293
  H         5.7373811619       13.9730153202       24.9247434212
  H         4.5294474294       15.1368560124       24.4865933694
  C         5.6806246801       14.4504361022       22.8943335399
  C         2.3989011374        8.0875989871       19.6387768707
  C         2.7401948502       10.3042978677       18.7697393281
  C        -0.5690260119       10.2229316895       28.1025504845
  C        -0.9743218064       11.4456602463       28.7878203923
  S        -1.0832095185       14.1412045188       28.7194939520
  H         6.2580560230       15.4127357314       22.9567000725
  H         5.0689883823       14.6400766355       21.9882086875
  C         6.5206072874       13.2404691058       22.3825179401
  N         2.0360487096        7.0871720047       20.5384088217
  C         2.7343486348        7.5933921351       18.3644861527
  C         3.0481414919        9.8327999185       17.4728194024
  H         2.9983664720       11.3617826226       18.9541884903
  C         0.5738941713        9.3748839733       28.8760226327
  C        -1.8385461740        9.3546970648       27.7762828947
  C        -1.3967002335       11.9062308822       30.1006338670
  C        -1.4325638553       13.2862769379       30.2285828589
  H         7.1188145718       13.0186986024       23.2905069835
  H         5.8071590818       12.4285973054       22.3151515568
  C         7.2933382757       13.4903000973       21.1031862220
  S         2.2342453151        5.6971682861       19.7271691754
  N         2.6399271957        6.2279018961       18.2885455893
  C         3.0642315163        8.3456125282       17.2297532174
  H         3.3174917598       10.5672762922       16.8019300540
  H         1.1369168425        8.8393952919       28.1839156454
  H         0.0430525707        8.7015033560       29.4729885927
  C         1.5414719442       10.2201631995       29.7600710930
  H        -1.5612050519        8.4570971372       27.1526076088
  H        -2.3219750251        8.9278193511       28.7529048265
  C        -2.9452004717       10.1722619638       27.0314722334
  H        -1.5760526566       11.0900999858       30.8119343430
  C        -1.6991000916       14.0276688522       31.4349533252
  H         7.7046063267       12.5743666791       20.8767546607
  H         7.8780096176       14.4187484654       21.0977057746
  C         6.3144175330       13.7330919780       19.8275307133
  C         3.4419565854        7.7998391812       16.0454680191
  H         1.6872690917       11.1762013306       29.1215489105
  H         0.8485593953       10.5630355454       30.5983368225
  C         2.7096398991        9.5118409252       30.2015683364
  H        -2.6154989132       10.5071666493       25.9926342516
  H        -3.1179705058       11.1165394932       27.5338461919
  C        -4.3162071669        9.4341626579       26.8866378776
  C        -1.6950457426       15.3797474929       31.6518980864
  C        -1.8012318314       13.2077709108       32.7390083284
  H         5.5693811470       12.9386259026       19.8591191208
  H         5.9472387787       14.7119109699       20.0599438860
  C         6.8886745680       13.7783376264       18.4089818123
  H         3.5919080350        6.7326897706       16.1367026149
  C         3.7862237985        8.2677667846       14.7935365761
  H         3.2095769248        8.8750656419       29.4079380296
  H         2.4411489767        8.7215717028       30.9933816774
  C         3.7972125729       10.3064220876       30.8512659993
  H        -4.1414605811        8.4907307675       26.2033353024
  H        -4.5351669148        9.0183258912       27.9504177814
  C        -5.4272877980       10.3829988462       26.4943276301
  N        -1.4486920171       16.3011679018       30.6788997084
  C        -1.9516129239       15.9110170779       32.8910086494
  C        -2.0468630596       13.7785526419       34.0041171322
  H        -1.4791840907       12.0722729164       32.5742517967
  H         6.2214280800       14.0978796555       17.7202539639
  H         7.7294636034       14.5469121167       18.3651589606
  H         7.2503057518       12.7951064189       18.0942119430
  S         3.8921597583        9.8976130287       14.2640070252
  C         3.9825316802        7.1839446232       13.7461713610
  H         3.9577739539       11.1487259042       30.2261477580
  H         3.4463011323       10.5735511018       31.8041829030
  C         5.1285332046        9.5872650861       30.8765470062
  H        -5.0915551704       11.0501034030       25.6261981122
  H        -5.7007025488       11.0856579382       27.3218023091
  C        -6.7856727353        9.5674542713       26.1302978115
  S        -1.7298272081       17.7474062656       31.3197302341
  N        -2.1121815673       17.3217119207       32.8192299853
  C        -2.2473282405       15.3128066843       34.0549486009
  H        -1.9862967251       13.2284345348       34.9253516426
  C         4.1843869709        9.1571493582       12.6570653717
  N         4.3027822024        7.8039716502       12.6401504598
  O         3.6755005647        6.0266457288       14.0248535643
  H         5.6910385979       10.2222370797       31.2601564616
  H         5.4194305752        9.4463636081       29.9807968111
  C         5.0769100579        8.3595242911       31.7013330592
  H        -6.4095221319        8.8078567420       25.3775282474
  H        -6.9216271325        9.0015848591       27.0528377347
  C        -7.9004917385       10.3241930989       25.6262698961
  C        -2.6028238383       15.9868553721       35.2528552759
  S         4.6381487527       10.0709364391       11.2493368101
  C         4.4065453032        7.0814473192       11.2875917407
  H         5.8520480753        8.4991144775       32.5591307064
  H         4.2374905945        8.0576140639       32.1782079183
  C         5.7086425613        7.1624360779       30.8672408736
  H        -7.8481106890       10.3239309164       24.5649416945
  H        -8.0615418258       11.3266789121       26.2063647970
  C        -9.2641620692        9.6664910957       25.7526360281
  H        -2.4430899899       17.0660406884       35.1172521359
  C        -3.1696130718       15.5682127057       36.4535097985
  H         5.0790896892        7.4719732067       10.5188929403
  H         5.0867982331        6.1816631640       11.4703294239
  C         2.9933334222        6.6493089267       10.7340198179
  H         6.6607068841        7.5482296296       30.5351036433
  H         5.0963254514        7.0204360876       29.9478164471
  C         5.8468748472        5.8280708473       31.7157064371
  H        -9.7066084668       10.1610066719       24.8437014055
  H        -9.1346552263        8.6391227206       25.6494722759
  C        -9.9463311283       10.0897061818       26.9370258607
  S        -3.6221237668       13.9573715361       36.8159059908
  C        -3.4511922620       16.5512583418       37.5309655060
  H         2.4734888952        6.0713023663       11.3653388280
  H         2.3559633521        7.4685756296       10.5815345675
  H         3.0667478934        6.1956527272        9.7348736464
  H         4.9828675013        5.2831176809       31.6431180376
  H         5.9224675024        5.9311682999       32.7197196090
  H         6.6135826876        5.1329591691       31.3787459721
  H        -9.3702195077        9.9499637360       27.8649881640
  H       -10.8758335259        9.4875405891       27.0004643102
  H       -10.2388952125       11.1683529159       27.0349698030
  C        -4.1658750260       14.5151522386       38.3830237322
  N        -4.0558529254       15.9411032783       38.5828823646
  O        -3.2090481757       17.7358653318       37.4301580567
  S        -5.1138095501       13.6696009074       39.6015124802
  C        -4.2726112493       16.5453699564       39.9377325595
  H        -4.2394637891       17.6167285341       39.5792638510
  H        -5.2790271592       16.5558993242       40.4526876661
  C        -3.0516950423       16.1910191485       40.7555709465
  H        -2.8998474596       15.1818495104       40.9953164743
  H        -2.3404219874       16.4620954936       40.1791826928
  H        -2.9783565800       16.7340513989       41.6661088668
  H         7.4459804408       10.6726863956        3.3036127200
  C         8.2167481242       10.0539354863        3.4027569824
  H         7.8880705121        9.0739469161        3.4081513015
  C         8.9288345571       10.3684455630        4.7583442125
  C         9.1179396382       10.2698333813        2.1107449831
  C         7.9282560163       10.6654820550        5.8839783849
  H         9.6974967403        9.6901683097        5.0620095326
  H         9.5869859844       11.2608971243        4.5640900434
  H         8.5995306992       10.2489478659        1.2448645934
  H         9.8077175766        9.4491546662        2.1773534363
  H         9.6722758182       11.1189073049        2.0036992497
  C         7.1846657858        9.4266848798        6.3617101417
  H         8.5401472823       11.1348100657        6.7073194374
  H         7.3012206221       11.4438609764        5.5918182336
  C         6.4204752822        9.5960827692        7.7898923077
  H         7.8487925711        8.6406207320        6.4475379634
  H         6.4158436430        9.1397551119        5.6478622594
  C         5.1965185716       10.5175598253        7.6037132195
  H         7.1721376215       10.1178842747        8.3962979612
  H         6.2005720958        8.6161296697        8.2937477691
  C         4.0090762291        9.8076829082        7.0763173936
  H         5.1166465511       11.1566956875        8.5802092220
  H         5.4651524520       11.3049816759        6.9694564812
  C         2.7835218943       10.8675144266        6.9349776029
  H         3.6072050854        8.8930734746        7.6927876571
  H         4.3081587298        9.4736132427        5.9799933892
  C         3.2363441960       12.2097855282        6.2945761514
  C         2.4525001231       11.5527807816        8.2736637748
  C         1.6165126435       10.0133678303        6.2756587178
  C         3.0789387507       13.2651404460        7.1992975836
  C         3.7275028335       12.6143640645        5.0371541484
  C         2.5455058478       12.8901316601        8.3939659383
  C         1.9474755310       10.8348991160        9.3868078268
  H         2.1566659479        9.3795348723        5.5702294305
  H         1.1540367460        9.2493526530        6.9133196764
  C         0.5982250824       10.9411261186        5.6921906299
  S         3.3960328205       14.7865496095        6.4511442544
  C         3.8018859570       13.9492833724        4.9773123153
  H         3.9778310388       11.6916133874        4.3863634957
  C         2.2653505298       13.5440004755        9.5494335671
  H         1.9764531692        9.7650130659        9.3152931748
  C         1.6491685542       11.5176177132       10.5767803608
  H         1.1310814794       11.7126452275        5.0934703003
  H        -0.0664306005       11.6638383000        6.3117897855
  C        -0.3967254900       10.3169049758        4.8404314008
  C         4.2759755879       14.6196093833        3.7366153536
  C         1.6632083158       12.8872959707       10.6720765434
  H         2.4770944056       14.5734281947        9.5752597933
  C         1.2871358739       11.1468569886       11.8437221550
  H        -1.3229831194       11.0082325194        4.6983008512
  H        -0.6106862510        9.1690091569        5.0619159583
  C         0.0641653175       10.0748134620        3.3001615114
  C         4.3663637112       15.9548885504        3.5300107742
  C         4.5397728113       13.7509613733        2.5289368820
  C         1.2577396768       13.5767325918       11.9436702464
  C         1.0207011274       12.3016782789       12.6226106362
  S         0.7561761350        9.6832753105       12.5016256993
  H         0.3613421750        8.9547377795        3.2493887521
  H         0.8834178961       10.6213464848        3.0201651829
  C        -1.0830467832       10.1844678274        2.4023646678
  N         4.1467870890       16.9461522637        4.4906170623
  C         4.6096511239       16.4746876440        2.2491072728
  C         4.7900946450       14.3141930077        1.2862415320
  H         4.4918150656       12.7123673449        2.5733988287
  C        -0.0129547675       14.3120891535       11.6823607620
  C         2.3692772582       14.5666242519       12.5555762651
  C         0.6097497352       11.8167593447       13.9571499077
  C         0.4376992826       10.4537385652       13.9900729596
  H        -1.9339951927        9.5405659176        2.6324546654
  H        -1.5270359759       11.1498692134        2.2260104511
  C        -0.4689301713        9.9737200610        0.9416713548
  S         4.3295383784       18.3649069843        3.7214683437
  N         4.5791228218       17.8711691844        2.2406544651
  C         4.8960651445       15.8396949384        1.0878495369
  H         4.9450372659       13.6010760972        0.4697147184
  H        -0.0448965756       15.2700587053       11.1376824442
  H        -0.4322846415       14.6528417158       12.7322660260
  C        -1.0914908592       13.4385825364       10.9365041052
  H         2.6385187402       15.3538868888       11.8409614071
  H         1.7460824779       15.0889394274       13.3142843629
  C         3.5360142505       13.7665917877       13.1933367257
  H         0.5124864156       12.5550332217       14.8167032492
  C         0.0992168468        9.6299621517       15.1787418021
  H         0.0492227874        9.0549495228        0.9464008055
  H         0.3989885529       10.7217633839        0.8640372304
  C        -1.5452708919       10.0489434177       -0.0638465613
  C         5.0591898039       16.4293163854       -0.1373054528
  H        -0.8312204168       13.2762719624        9.9726814519
  H        -1.2091931667       12.4316338098       11.3736719567
  C        -2.5864538184       14.0329298720       10.8858445934
  H         4.0081504896       13.2233689124       12.4443498969
  H         3.2138736360       13.0952923248       13.9258476657
  C         4.7089320646       14.6482012969       13.8258113922
  C         0.0242697526        8.2745622542       15.3288017657
  C        -0.1304558333       10.4448959625       16.4359816841
  H        -1.9059053861        9.1083998228       -0.3991053864
  H        -2.4348540102       10.4170279566        0.3055568905
  C        -1.2017061798       10.9456240106       -1.2795552239
  H         5.0537579365       17.4960800147       -0.0745428628
  C         5.3632250769       15.9512933394       -1.4204680209
  H        -2.6395032213       15.1085766969       10.6552332095
  H        -2.8168836217       14.0039770425       11.9854690866
  C        -3.5221648992       13.0736199065       10.3258668667
  H         5.0563708229       15.1266070655       12.8967111524
  H         4.2792364358       15.3257297135       14.5629023441
  C         5.6869076647       13.7550290518       14.3932461183
  N         0.1649740744        7.3963543291       14.2975583451
  C        -0.1838841852        7.6852630263       16.5778981080
  C        -0.3687598224        9.7823436428       17.6249955282
  H        -0.1485727324       11.4351869068       16.3121006886
  H        -2.1359349308       11.1379450509       -1.6982629192
  H        -0.4424307435       10.3135095134       -1.8657754238
  H        -0.7167962456       11.8529016412       -0.9160328949
  S         5.6100548088       14.3008127669       -1.9241412579
  C         5.4899713739       16.9606784685       -2.4842862972
  H        -3.0216270170       12.2159903662        9.7896339058
  H        -4.0074117111       12.5683012527       11.1623624697
  C        -4.5346544239       13.7166900070        9.4181580177
  H         5.8374502237       12.8367518135       13.8132122395
  H         5.4787121494       13.5194575905       15.4108919562
  C         7.0877911878       14.2765053743       14.3152664808
  S         0.1511404574        5.8781803920       14.9596061388
  N        -0.2102132302        6.2461944021       16.4618585172
  C        -0.4168600402        8.3079676697       17.7350256596
  H        -0.4743800236       10.4545650600       18.4833904412
  C         5.7578956934       14.8875137823       -3.5338841748
  N         5.8013244157       16.2959651925       -3.6098299594
  O         5.4606671592       18.1424236995       -2.3772600623
  H        -5.0844053327       14.5348594888        9.9472789695
  H        -4.0702224929       14.0494555470        8.5479994096
  C        -5.5405211454       12.7625269449        8.9935040915
  H         7.7370044206       13.5590051220       14.6782069858
  H         7.2903479514       14.5522296308       13.3294089667
  C         7.3146845789       15.6217210837       15.0768731945
  C        -0.7447638986        7.6709074993       18.9487569246
  S         6.3186450215       13.9967918666       -4.9300005536
  C         5.8192912902       17.0749385630       -4.8589642607
  H        -5.0973987662       12.2735438288        8.2038893904
  H        -5.7102434646       12.1698283542        9.8029105236
  C        -6.7547205132       13.4771254811        8.4768073196
  H         7.6798715367       15.3754071913       16.0691499641
  H         6.3855353812       16.1535936307       15.1309301812
  C         8.3824301184       16.4709095817       14.4079134948
  H        -0.3616508251        6.7227752032       18.9017451890
  C        -1.2611315878        8.0867983110       20.1707176184
  H         6.3666423194       16.5559143560       -5.6892048291
  H         6.2421596642       18.0932383512       -4.7050100722
  C         4.4120652473       17.0698760804       -5.4419757222
  H        -7.1951246828       12.9447597071        7.6497262480
  H        -6.5928292384       14.3330937050        8.1536383743
  C        -7.8675597353       13.5032016747        9.4566226263
  H         9.3793561077       15.9515926800       14.4215831310
  H         8.2754164397       16.4761801434       13.3747749055
  C         8.3900877142       17.8872169102       15.0608809460
  S        -1.8234017646        9.6468819800       20.5047308261
  C        -1.4590248352        7.0535384544       21.2570759454
  H         4.5555105376       16.9437500669       -6.5150528331
  H         3.8743276760       17.9187623375       -5.3109669950
  H         3.8674174152       16.2468131263       -5.1801451037
  H        -8.1865705421       14.5701651377        9.5799477630
  H        -8.7250836915       12.8548957779        9.2562490742
  H        -7.6090192831       13.1386745401       10.4653718980
  H         8.9733449895       18.5995676418       14.6435364773
  H         7.4640075202       18.2067914703       15.2135129189
  H         8.8415030392       17.7767059081       15.9516870782
  C        -2.3897489014        8.9803780730       22.0091955674
  N        -2.1062478173        7.6008884111       22.1789239420
  O        -1.0793168776        5.9249812943       21.1542597270
  S        -3.3312327905        9.7301276855       23.2388879028
  C        -2.2499662097        6.9055358576       23.5438592762
  H        -2.6512323840        5.9376993544       23.3298574979
  H        -2.9246263420        7.3147464121       24.2765737013
  C        -0.9315504160        6.9313453932       24.2637005590
  H        -0.3643262685        6.1184615067       23.8091096427
  H        -1.0575424724        6.7641120168       25.2943811569
  H        -0.3377960728        7.9198676990       24.1515717103
