352
i =
  H        -2.8303205986       15.2670005018       16.3346326603
  C        -2.8684349034       14.2440900426       16.5503565585
  H        -3.9008057903       14.1000908909       16.7377724758
  C        -2.0978431413       13.9789686138       17.8407044730
  C        -2.5609167795       13.3934031190       15.3274452258
  C        -3.0232790196       13.4167901737       18.8849181155
  H        -1.3788071068       13.2067505445       17.6380909988
  H        -1.6183204973       14.9453765607       18.1140612945
  H        -1.9411708208       13.8891447536       14.4997027479
  H        -2.0194889167       12.4689174899       15.5658324495
  H        -3.4654485685       13.0736069070       14.8796018945
  C        -2.1779670021       12.8572181827       20.0053393506
  H        -3.6199771698       12.5676305304       18.6441428400
  H        -3.7139161437       14.1348865058       19.4350057505
  C        -2.6401596416       13.2949480422       21.3704627874
  H        -2.2536243135       11.8641313182       20.1165784895
  H        -1.1295800937       13.0701641597       19.8559506347
  C        -1.5939497483       12.8113963496       22.3838860418
  H        -3.6077327872       12.8380787447       21.5286450181
  H        -2.7433679198       14.3612074539       21.2649447149
  C        -0.3862831721       13.7083987580       22.5769378421
  H        -2.0107499576       12.6736261850       23.3403948217
  H        -1.2736174428       11.7741696563       22.0735744109
  C         0.8054992382       13.0087277328       23.2221089354
  H        -0.0732832137       13.8591577120       21.5415648042
  H        -0.6160481589       14.6593696920       23.0577057987
  C         1.2536200393       11.8028350195       22.4425083154
  C         0.4177227664       12.3233381504       24.4474159577
  C         2.0350633806       13.9334059974       23.4025436546
  C         1.0437118911       10.6483093459       23.3026986008
  C         1.7094821699       11.3981758696       21.1790767555
  C         0.5954652897       11.0031845363       24.5506803505
  C         0.0057682502       12.8621903641       25.6305921110
  H         2.1813813074       14.4990254250       22.4905261406
  H         1.7644607569       14.5918221912       24.2500558285
  C         3.3827943508       13.2252999705       23.6580097918
  S         1.4498214766        9.1229978011       22.5476700645
  C         1.9744352068       10.0505664961       21.1471015506
  H         1.6796344037       12.0143163606       20.2951830476
  C         0.2613920199       10.3251649437       25.6999285373
  H        -0.1324540806       13.9277132686       25.6086049391
  C        -0.3024983473       12.2253501989       26.7669499646
  H         3.6394295297       12.6783159850       22.7455910729
  H         3.2573981919       12.5049409431       24.4808769600
  C         4.5603697228       14.1726522412       24.0028761172
  C         2.5431663795        9.4305070450       19.9022460614
  C        -0.2447777787       10.8731450728       26.8954682938
  H         0.3444711683        9.3112830513       25.6797691506
  C        -0.6602053632       12.6070133400       28.0403579602
  H         5.4119504985       13.6085620215       24.2482946999
  H         4.5742387883       14.7992757061       24.8791085132
  C         4.9350847709       14.9415255967       22.7732059562
  C         2.5495765342        8.0639058531       19.6170934807
  C         3.0383974403       10.3159475352       18.7726090808
  C        -0.7503346165       10.1836820590       28.1388971718
  C        -0.9453312610       11.5414620263       28.8190781903
  S        -0.8177811123       14.0454584375       28.8623949790
  H         4.8991876029       15.9898315366       23.0250055299
  H         4.3045621508       14.7127562346       21.9561772915
  C         6.3508620033       14.5687307600       22.2762124722
  N         2.1106129668        7.0491597144       20.4729676536
  C         2.9352491753        7.5075132364       18.4079161694
  C         3.4407344890        9.7274015094       17.5466151072
  H         3.2109143866       11.3717587869       18.8627041211
  C         0.3698612491        9.3537382211       28.8219221460
  C        -2.0955366117        9.4197497535       28.0652493502
  C        -1.3358735039       11.9536672799       30.1339281809
  C        -1.2999043241       13.3188154460       30.2503211297
  H         6.6993275841       15.4929788608       21.7515579592
  H         7.0185157259       14.2938962774       23.0644050733
  C         6.2984610970       13.4625725186       21.2517200879
  S         2.2271334448        5.5570331598       19.7339135132
  N         2.8824464789        6.1067910408       18.3951453335
  C         3.3466271402        8.2989894470       17.3203914032
  H         4.0801518535       10.2933404053       16.8967753429
  H         0.6604686298        8.4848945988       28.1911475925
  H        -0.1386964578        8.9403668396       29.6839875283
  C         1.6195293445       10.2333612382       29.1394100258
  H        -2.0412782186        8.5646581596       27.4323943314
  H        -2.4291158773        9.2393884974       29.0828123268
  C        -3.1296932454       10.3560745997       27.4603632414
  H        -1.6277819762       11.2377577886       30.9074265748
  C        -1.6867568532       14.0405854711       31.4349787923
  H         5.5352449949       12.7356482989       21.6188891314
  H         7.1795082741       12.9066583751       21.2270612613
  C         6.0137917631       13.9900291473       19.8552242469
  C         3.6040987077        7.6135492243       16.0372645340
  H         1.8860032966       10.8109558661       28.2195672673
  H         1.3680114493       10.8681705544       29.9333964138
  C         2.7338966851        9.4822191376       29.7932731739
  H        -2.8558846587       10.7035326545       26.4296409621
  H        -3.4377025778       11.2630434453       27.9568368758
  C        -4.4590151356        9.6172070230       27.3405940220
  C        -1.7166881698       15.4544584605       31.5672900344
  C        -1.8110871586       13.2351472392       32.7160371254
  H         5.3779273833       13.2396764272       19.3724413999
  H         5.5105102893       14.8859353914       19.9304325793
  C         7.2994998812       14.1717477443       19.0820011150
  H         3.4883761955        6.5353432056       16.0516361287
  C         3.8811257284        8.1095699155       14.8448112292
  H         2.7979856332        8.5145461007       29.3577769707
  H         2.4849720201        9.0009170544       30.7835918512
  C         4.0421176003       10.1271236510       29.7425107221
  H        -4.2837779661        8.6503440744       26.8723853178
  H        -4.9339653270        9.4384824296       28.2531001609
  C        -5.4659231857       10.4248066146       26.5596475199
  N        -1.5041395175       16.3875924477       30.5395609934
  C        -2.0190913394       16.1009767402       32.7442676537
  C        -2.0603571116       13.9305694522       33.9106149467
  H        -1.6994628219       12.1635770164       32.7637544773
  H         8.0393097293       14.8178491605       19.5946357153
  H         7.6838911050       13.1790807507       18.8475573278
  H         7.1505106041       14.6424415002       18.1415069034
  S         4.2467516163        9.7746435184       14.4493394432
  C         3.9411622380        7.1691394864       13.6689827136
  H         4.0481013227       10.8818578554       28.9556775574
  H         4.1867512675       10.6633280072       30.7248536158
  C         5.3180807645        9.2568807548       29.4764509805
  H        -4.8683008224       10.9398466923       25.8037124060
  H        -5.9914864319       11.1097147776       27.2281708972
  C        -6.4570423977        9.5399940762       25.7669757361
  S        -1.6616015111       17.9188734544       31.1381634679
  N        -1.9318458018       17.5078595763       32.6784776185
  C        -2.2956913997       15.3908527107       33.9570281224
  H        -2.0492757732       13.3378507510       34.8449802182
  C         4.5206665246        9.1641699786       12.8023543582
  N         4.3403605423        7.8615286964       12.6101071232
  O         3.7638872925        5.9835829089       13.7090781397
  H         6.1279627491        9.9282101505       29.0884963864
  H         5.0924375363        8.4620191912       28.8078446956
  C         5.9304054308        8.4319491218       30.6244412242
  H        -6.0051394654        8.7429671694       25.1941301340
  H        -6.9311846170        8.9466159020       26.5347689004
  C        -7.5092607339       10.3436240346       25.0614915211
  C        -2.6008837490       16.1642315041       35.0952250475
  S         4.9753394845       10.1017189529       11.4504149955
  C         4.5780254642        7.1416255236       11.3434002682
  H         6.9451841251        8.0739543825       30.3974047465
  H         6.0581603800        9.0477646383       31.4948032721
  C         5.1730410687        7.2403471244       31.0206630256
  H        -7.1672743745       10.7553889230       24.1050593940
  H        -7.7703311893       11.2226092716       25.6454660256
  C        -8.7362539877        9.4635996339       24.9023719696
  H        -2.0790075509       17.1261606517       35.0549291804
  C        -3.0922314746       15.8452397558       36.3494526041
  H         5.2421885838        7.6120970993       10.5490896853
  H         4.9144298966        6.1581790984       11.6567977211
  C         3.1781409611        6.9349499750       10.6300619614
  H         5.0501393197        6.5793713511       30.1842202118
  H         4.2122837647        7.5139081892       31.3840408804
  C         5.8378347815        6.4637090077       32.1495139061
  H        -9.2660502275        9.8278966290       24.0080509381
  H        -8.5396683860        8.3859576995       24.5898921060
  C        -9.7938252790        9.5909222538       26.0489714224
  S        -3.7599436081       14.2924568207       36.8078324439
  C        -3.2239902674       16.8913074484       37.3158015733
  H         2.3603056174        7.4330895511       11.1195618747
  H         3.2885635085        7.3381859953        9.6323633936
  H         2.9448773591        5.8890880787       10.5763337605
  H         6.8759782891        6.2103874150       31.8643451218
  H         5.3490025402        5.5118157740       32.2299312750
  H         5.8232676695        7.0846058125       33.0921840702
  H       -10.7858354573        9.4243351795       25.5940826034
  H        -9.7726063809       10.6106896453       26.4494667280
  H        -9.5860039400        8.8742939814       26.8303439841
  C        -4.1835613852       15.0478391966       38.3206349318
  N        -3.8497517071       16.3301040000       38.3721525429
  O        -2.8721733846       18.0722392997       37.1499377997
  S        -5.0023861190       14.2168693303       39.6846321631
  C        -4.1187658262       17.1803239663       39.5476063402
  H        -4.3948640684       18.2660374686       39.3964644711
  H        -4.9503961038       16.7421135894       40.1284478442
  C        -2.9453072818       17.2208119368       40.5150298878
  H        -2.9585377514       18.2658659324       40.8132429643
  H        -3.0716138501       16.6365344663       41.4119002258
  H        -2.0321315292       16.8652269700       40.0301633715
  H         7.7000938269       11.4433008940        3.3459772811
  C         8.2757946797       10.5632243264        3.4456419287
  H         7.5837538559        9.6725612478        3.5430215871
  C         8.9822431915       10.5165921290        4.7963900099
  C         9.1669279508       10.1763447419        2.1996663398
  C         8.0992320116       10.7965342915        5.9944918650
  H         9.4966928870        9.5537939278        4.8078351867
  H         9.7447178114       11.3205850093        4.8257073293
  H         8.6632480414        9.7587422581        1.2940795204
  H         9.9177372961        9.4478604799        2.5489757434
  H         9.6814339253       11.0372963307        1.9794751371
  C         7.4757486098        9.6172837588        6.6760947828
  H         8.5730376448       11.3343163695        6.8346336880
  H         7.2680288272       11.3715872486        5.6029607152
  C         6.7487185700        9.9675404298        7.9952369965
  H         8.2232702523        8.8533426268        6.9054523631
  H         6.7969012580        9.1357146414        6.0250479207
  C         5.4429769878       10.7045503392        7.8589782709
  H         7.4855327560       10.5962695468        8.5347916788
  H         6.5631321029        9.0616179663        8.5715206888
  C         4.2236665731        9.8757294463        7.2949593859
  H         5.0824128505       11.0831336181        8.8370600436
  H         5.5794747228       11.5720455657        7.2019063311
  C         3.0181383796       10.7231056073        7.1087992840
  H         3.9403021371        9.1395897654        8.0206105977
  H         4.4524913703        9.3907664662        6.2965257482
  C         3.3813448438       12.1289651927        6.4465845167
  C         2.5344386486       11.4841637657        8.3409949898
  C         1.9059945397       10.0752870121        6.2777440558
  C         3.0925846692       13.2428963550        7.2411864414
  C         3.9117406835       12.4972967230        5.1740028778
  C         2.5337856581       12.8433596338        8.4373134252
  C         2.1822556141       10.7842182384        9.5534679665
  H         2.3200166535        9.8805168853        5.2505640669
  H         1.5298903711        9.1728957052        6.7044535957
  C         0.6763879515       10.9526934193        6.0641724148
  S         3.4942847441       14.7489726710        6.4683236477
  C         4.0211189100       13.8585432861        5.0371895022
  H         4.1701716000       11.7324852978        4.4963223625
  C         2.2398938026       13.4246081780        9.6166332559
  H         2.2117071960        9.7225791253        9.5485419397
  C         1.8028051617       11.4680681499       10.6889951432
  H         0.9404218935       11.9557400542        5.6242757325
  H         0.1839428762       11.2587065401        6.9543155104
  C        -0.3811190477       10.2355213383        5.1556242557
  C         4.3176946319       14.5645119804        3.7043651186
  C         1.7754158001       12.8034917740       10.7435656065
  H         2.2853056354       14.5048773095        9.7132792726
  C         1.3564009387       11.0381442902       11.9361508224
  H        -1.3054487975       10.8251682991        5.0398209662
  H        -0.7048445866        9.2884560023        5.6506577355
  C         0.0835558264        9.9666632460        3.7172862661
  C         4.2700876311       15.9518006068        3.4112603362
  C         4.7267239937       13.7273999043        2.5613498754
  C         1.3204545318       13.4380532467       11.9823661458
  C         1.0807254872       12.0982786868       12.7326818011
  S         1.1536932955        9.4987767213       12.6542010264
  H         0.7174844843        9.0956968314        3.6980578767
  H         0.5944155094       10.8187592760        3.2448969342
  C        -0.9483086564        9.8325250719        2.6467958892
  N         3.9823206678       16.9533173677        4.3304461232
  C         4.5193726888       16.4638860132        2.1600603259
  C         5.0956658891       14.2805031079        1.3368597676
  H         4.9137223414       12.6413718618        2.6665086492
  C        -0.0220984795       14.0903116878       11.7311206227
  C         2.2912354719       14.3761286079       12.8241380357
  C         0.5701777390       11.6597550559       13.9772594446
  C         0.6207125495       10.3236474367       14.1110203297
  H        -1.7120058466        9.1902475413        3.0901884191
  H        -1.3716670901       10.8133412215        2.4343030871
  C        -0.4594276371        9.1859422602        1.3630920192
  S         3.9702675909       18.3691226950        3.5380289770
  N         4.3946160100       17.8281668440        2.0455279457
  C         4.8957652067       15.6823460068        1.0265208549
  H         5.4007778050       13.6242353007        0.5336551211
  H         0.2027571729       15.0252011235       11.1791079129
  H        -0.3936947118       14.3568031641       12.7388482597
  C        -1.0046513020       13.2279798766       10.8716415181
  H         2.3059868980       15.1943084872       12.1958432677
  H         1.8220777798       14.6665874618       13.7384374163
  C         3.6590519818       13.7409335038       13.1270763123
  H         0.3283240463       12.4202032751       14.7384924347
  C         0.3034654465        9.4996898441       15.3868488487
  H        -1.1251272900        8.2740774216        1.2251903794
  H         0.6509025523        9.0895954933        1.4640071030
  C        -0.9082440891       10.0477825949        0.3043624404
  C         5.1797144439       16.2603926701       -0.1982569479
  H        -0.5979756816       12.9701130834        9.9102205951
  H        -1.0508480251       12.2623449819       11.3397074531
  C        -2.3662216928       13.9030184438       10.6695890661
  H         4.3779544046       14.0526923314       12.3624187819
  H         3.6358997552       12.6164762468       13.2415784501
  C         4.3539771464       14.2435271017       14.4332279539
  C         0.3107581187        8.0860376715       15.5049644901
  C        -0.0054931135       10.2095305289       16.6360146763
  H        -1.9728079225       10.3057966411        0.3064034147
  H        -0.3285017706       11.0353922543        0.4228023268
  C        -0.7039018838        9.5354493448       -1.1022392574
  H         5.1436757473       17.2734769947       -0.2123687316
  C         5.4152824267       15.8140753431       -1.4905413715
  H        -2.2256355157       14.8951217506       10.2614257597
  H        -2.8636294537       14.0454114254       11.6984942553
  C        -3.3268800229       13.1896569483        9.7121271237
  H         4.4782162063       15.3074701718       14.4015710215
  H         3.6490845149       14.0967574373       15.2761991798
  C         5.6667179028       13.4879991774       14.6670097761
  N         0.6866917557        7.1892152100       14.4946748845
  C        -0.0915151272        7.3747402285       16.6078327974
  C        -0.2435836944        9.5045082655       17.7849911083
  H        -0.0072867264       11.2985269344       16.7255992906
  H        -1.6106509087        8.8783460202       -1.2009090049
  H         0.2260645695        8.9571706392       -1.2413834088
  H        -0.7711477693       10.2132215936       -1.9229990944
  S         5.6400517470       14.1641515622       -1.9513846782
  C         5.3419089927       16.7355129753       -2.6248205792
  H        -2.8177469776       12.7370580217        8.8001212767
  H        -3.7851491388       12.3002184321       10.1033155437
  C        -4.4318443210       14.0840686683        9.1218484018
  H         5.5801025913       12.5437335899       14.2853121044
  H         5.8416526203       13.4785883538       15.7044227104
  C         6.8925572541       14.1294087863       14.0112670250
  S         0.5768546313        5.6797165063       14.9813235267
  N         0.0073838564        5.9893657395       16.4707887538
  C        -0.3967469457        7.9887008240       17.8396040078
  H        -0.4794334149       10.0164859318       18.6776494442
  C         5.9058806592       14.7374348990       -3.6325500773
  N         5.8118611429       16.1071940426       -3.7227897872
  O         5.2024082553       17.9440005298       -2.5289110547
  H        -4.7373857680       14.8386998550        9.8436403744
  H        -3.9915248569       14.7482842279        8.4400605030
  C        -5.6809486157       13.2644364422        8.7026164846
  H         7.6776390499       13.3996282734       13.7729359699
  H         6.6245114853       14.5450496761       12.9917281431
  C         7.4178582649       15.3597427320       14.8123944910
  C        -0.8615732134        7.2420072110       18.9301720018
  S         6.3401046989       13.7926119706       -5.0026461949
  C         6.0687146127       16.8651795211       -4.9364424587
  H        -5.4475964846       12.7981550734        7.7763380570
  H        -5.9368873839       12.4801712259        9.3952629562
  C        -6.9791055878       14.0940541422        8.4621797073
  H         7.9597725392       15.1226911606       15.7185444061
  H         6.5722465960       16.0105269090       15.1530113794
  C         8.3364352533       16.2274637770       13.9669446237
  H        -0.8475182532        6.1303482775       18.8013465629
  C        -1.3633504082        7.5862055382       20.1785839497
  H         6.9445553096       16.4877847237       -5.4536896443
  H         6.2518579269       17.9195080286       -4.7578004304
  C         4.8980563239       16.7720441460       -5.9785476215
  H        -7.6771675032       13.6612945680        7.7006975866
  H        -6.6811180738       15.1125170394        8.0510519903
  C        -7.7426002679       14.3482987211        9.8918608548
  H         9.1974441228       15.5420706958       13.8526235182
  H         7.8166154247       16.4660217145       13.0180318968
  C         8.6472223270       17.5047028243       14.6764787554
  S        -1.8328673983        9.2177506839       20.7623804820
  C        -1.4879824008        6.5654716681       21.2443844934
  H         5.0249661708       17.7150054817       -6.5860886201
  H         3.8578656013       16.8746706495       -5.5759545530
  H         4.9284626137       15.7963432283       -6.5668448346
  H        -7.1834120196       15.0006607616       10.5933185523
  H        -8.7106116653       14.7218555961        9.6277061915
  H        -7.9983807390       13.4444256879       10.4466410918
  H         8.7073440071       17.2662571016       15.7359330445
  H         9.5595679013       17.9814221675       14.2982987026
  H         7.8226664978       18.2125178765       14.7199998747
  C        -2.2421342867        8.3962917171       22.2655168877
  N        -1.9456938623        7.0889781551       22.3705361835
  O        -1.1235768856        5.3732318705       21.1336539236
  S        -2.7495633440        9.0935423988       23.7339227081
  C        -2.0807913836        6.2757565875       23.5643840811
  H        -2.2517598811        5.2193969670       23.2994569697
  H        -2.9842510556        6.4770296058       24.0933204016
  C        -0.7345160119        6.4117580607       24.3731120751
  H         0.0960472396        6.5937539891       23.7032864401
  H        -0.4357273191        5.4226415037       24.8102481814
  H        -0.7311888555        7.1814290224       25.1706257537
