352
i =
  H        -2.3981667430       15.4093011969       15.2620990364
  C        -2.9446880742       14.5555567302       15.7354501437
  H        -3.8392317679       15.0446162545       16.0972991517
  C        -2.2368904562       13.8165938975       16.8709112243
  C        -3.4117148402       13.6104969288       14.6659368633
  C        -2.5813636819       14.3593221944       18.2393490500
  H        -2.5840859408       12.8481276606       16.7356083575
  H        -1.1077990737       13.7662042292       16.7371108195
  H        -3.8514089037       14.0134596190       13.7854006908
  H        -2.4477315967       13.1959509755       14.3567028180
  H        -4.0492105343       12.9163877567       15.1994475088
  C        -1.6026372548       13.9697517926       19.4011421120
  H        -3.5043047894       13.8683403625       18.5071337406
  H        -2.6567715082       15.4925078233       18.1127223738
  C        -2.1758647271       14.0708802597       20.8339842775
  H        -1.0149743653       13.0822819209       19.1651245474
  H        -0.9017524466       14.8439026465       19.3996729589
  C        -1.2162311192       13.4219298737       21.8251596297
  H        -3.1995247326       13.7127679904       20.8963788991
  H        -2.2977686803       15.0486177611       21.0301335790
  C         0.0551151693       14.2342603856       22.0567116178
  H        -1.8066067822       13.5294469198       22.7186640524
  H        -1.0342587216       12.4007337249       21.5211269568
  C         1.1453573610       13.4648519147       22.7933859117
  H         0.5708894888       14.5248106226       21.0708730911
  H        -0.1689626267       15.0011617947       22.7811327016
  C         1.5016370533       12.1099180611       22.2035008123
  C         0.5820643609       12.8113289470       24.0394392503
  C         2.3373468822       14.3269593991       23.0762507475
  C         1.1293440214       11.0110928950       22.9749877838
  C         2.0227096166       11.6359993053       20.9788407299
  C         0.5040216286       11.4371284408       24.1729037074
  C         0.1170046350       13.4568464860       25.2009280284
  H         2.5207954940       14.8283785882       22.1746163252
  H         2.0808037805       15.0763747311       23.7814207104
  C         3.6972556905       13.6059921355       23.5907998525
  S         1.5171134459        9.5100468017       22.3113272924
  C         2.1306535030       10.2861625551       20.8653960525
  H         2.2164985438       12.2833775094       20.1501049294
  C        -0.0665271687       10.8393577520       25.2954552354
  H         0.3168730095       14.5258615075       25.2029613910
  C        -0.3329856802       12.8307697389       26.3093631321
  H         4.0046337333       12.8425672159       22.8770325780
  H         3.5586210619       13.1082719002       24.5811169091
  C         4.9008431450       14.5944909466       23.8863250092
  C         2.6339610600        9.6168444449       19.5903807607
  C        -0.3910328956       11.5269153127       26.4899436267
  H        -0.2616095297        9.7301504832       25.3493634238
  C        -0.7196950861       13.2466493973       27.5790455200
  H         5.5813385096       14.0129566720       24.5917790193
  H         4.4781570094       15.4515732274       24.5223450902
  C         5.6281399859       15.2384684184       22.6731795928
  C         2.5061128770        8.2597531536       19.3333619188
  C         3.0531204773       10.4421135984       18.4269121699
  C        -0.8860125388       10.8217313872       27.7020513392
  C        -1.0254432542       12.1848241189       28.3721701598
  S        -0.9562874766       14.7693510579       28.3673639142
  H         6.2255369876       16.1420642955       22.9959211585
  H         4.8877368483       15.5565736396       21.9244758443
  C         6.6011378561       14.2997074759       21.9848301961
  N         2.0712818871        7.2649293839       20.2960349437
  C         2.6550931302        7.6416929386       18.1870267277
  C         3.1803335916        9.8266176339       17.1556548258
  H         3.3462214697       11.4778799953       18.4189055574
  C         0.3201503749       10.0274281690       28.3073964961
  C        -2.2241828798        9.9563138503       27.4004443139
  C        -1.5279631997       12.5893580028       29.6044375144
  C        -1.5043783257       13.9794092112       29.7322769373
  H         7.5419550202       14.9563335595       22.0075294106
  H         6.9689664269       13.3830384507       22.4675444058
  C         6.4238725083       13.9803220906       20.5139402790
  S         1.9163127129        5.7801312747       19.7010746243
  N         2.5623658955        6.2574994879       18.2730406735
  C         3.0281840945        8.3784262001       16.9768760487
  H         3.6395859153       10.3831798428       16.4009673043
  H         0.8614358015        9.5241377057       27.5208156800
  H        -0.0283675280        9.2753402534       29.0263326397
  C         1.3748332905       10.8601510072       28.9926085865
  H        -2.1219595518        9.2565322923       26.6196802389
  H        -2.4094344435        9.3477908925       28.2968016638
  C        -3.4165978292       10.8196347030       27.1385361967
  H        -1.9343737042       11.9089968701       30.2339854598
  C        -1.8132600926       14.7608043913       31.0182503673
  H         5.9187733838       14.8010769256       20.0037791722
  H         5.7100967502       13.1493764539       20.5221680212
  C         7.5290773147       13.6747258392       19.6134870340
  C         3.2931979137        7.6401635275       15.8048103703
  H         1.8384698845       11.4686243210       28.2444194491
  H         1.0754466301       11.4704960721       29.7842286203
  C         2.4146882441        9.9204483233       29.6308232971
  H        -3.2861504347       11.5508570389       26.2786724070
  H        -3.6878334452       11.3633127458       28.1183140203
  C        -4.5893407844        9.9378240434       26.8787565022
  C        -1.8521187481       16.1736854236       31.3187425790
  C        -2.0678612169       13.9287700152       32.2057032800
  H         8.3007091661       14.4375272348       19.6898431001
  H         8.0290064474       12.7662412283       19.7506109548
  C         7.1002201384       13.7267843342       18.1435122327
  H         3.0456583051        6.5306269545       15.8415469450
  C         3.5602382834        8.0648786606       14.5376239753
  H         2.5507534894        9.0979495744       28.9962766358
  H         2.0013434280        9.4409024809       30.5669649816
  C         3.7914214294       10.5429490248       29.9204398744
  H        -4.3788037709        9.1397442723       26.1761849241
  H        -5.0254874910        9.5094179421       27.7914056541
  C        -5.7032142556       10.7452405764       26.2598509329
  N        -1.5670871115       17.2199191989       30.3683824235
  C        -2.0427964426       16.7239778686       32.5972505687
  C        -2.2738295533       14.4536023078       33.4592187638
  H        -1.9115309656       12.8661277731       32.2043029160
  H         7.6853795651       13.1067626201       17.5446208548
  H         6.0448332404       13.5159016328       18.0034594563
  H         7.3414946087       14.7046104932       17.7943609930
  S         3.8661956664        9.6334083818       13.9481513062
  C         3.4902739036        7.0292420302       13.5156247251
  H         3.9954354920       11.1117357281       29.0061468337
  H         3.7842691672       11.2357265292       30.8007489279
  C         4.8491624109        9.4071939858       29.9819391037
  H        -5.3850931945       11.0593879652       25.2300041935
  H        -5.7007956576       11.6825101173       26.7757039961
  C        -6.9829913348        9.9990919445       26.1371326662
  S        -1.6690407862       18.6450895737       31.0767212365
  N        -1.9712583554       18.1285087754       32.6015825678
  C        -2.2400903208       15.8964477597       33.7372178887
  H        -2.3434611456       13.7259742330       34.1797362670
  C         3.9676098402        8.8873661850       12.3670767566
  N         3.8170734752        7.5324935591       12.3110540287
  O         3.1519199349        5.8717338290       13.7300189518
  H         5.8180366444        9.8364643046       30.2473310023
  H         5.0768196652        9.0183393977       28.9949259401
  C         4.4678210689        8.1549688239       30.8698650371
  H        -6.8054602183        9.1846369705       25.4014396114
  H        -7.1809485676        9.4323701017       27.0792927900
  C        -8.1367612097       10.8753362814       25.6599476815
  C        -2.4328696610       16.5638070874       34.9816319797
  S         4.4428864351        9.7332784396       10.9202082952
  C         3.8062556964        6.7724046692       11.0932303679
  H         3.8220198548        8.3708255457       31.6889206019
  H         4.0113718697        7.4332036299       30.2447019975
  C         5.6025697095        7.3907661297       31.4968738440
  H        -7.8754639246       11.4012418156       24.7178941359
  H        -8.4507441490       11.6462602835       26.3489767798
  C        -9.3031217563        9.9510504753       25.3129737051
  H        -2.0686432079       17.6298571620       35.0804724811
  C        -2.9564678201       16.1804653215       36.2529017298
  H         4.6355117742        6.9759633923       10.4170090918
  H         4.0567446731        5.7550375982       11.3473205016
  C         2.4309187239        6.8593915371       10.4493530242
  H         5.3968287202        6.6594374963       32.2611329477
  H         6.3005126732        8.0266802010       32.0093286247
  C         6.1238566262        6.5620544703       30.3142750589
  H        -9.9361736072       10.4880606925       24.5763064893
  H        -8.9647403096        9.0750348523       24.6054890862
  C       -10.0251302655        9.5312346303       26.5398289376
  S        -3.5612093460       14.5715132909       36.6538252490
  C        -2.9483051452       17.0838620195       37.3418500441
  H         2.2444520108        7.7858440558        9.9619377408
  H         2.1982925779        5.9607071448        9.9125900269
  H         1.6813299894        7.0246700900       11.2807688151
  H         6.8209743959        5.7889526260       30.6857525772
  H         6.6675275711        7.2468514672       29.6295822094
  H         5.4062799100        6.0450274189       29.6355685445
  H        -9.5940843026        8.5827027467       26.7341753399
  H       -11.0704718347        9.4676973608       26.4024265247
  H        -9.9854461067       10.1395319239       27.4490710492
  C        -3.6836503773       15.1350081466       38.3420884504
  N        -3.4612407828       16.4834282583       38.4097307669
  O        -2.6467620959       18.2994570273       37.3509699678
  S        -4.1714388309       14.2008613834       39.7467200809
  C        -3.6762800603       17.2415043976       39.6477612022
  H        -4.0698982728       18.3182418015       39.5072155366
  H        -4.5528225216       16.7593814461       40.2159778739
  C        -2.5405740084       17.3040486098       40.6161029459
  H        -2.7489728399       18.0588659582       41.3190704336
  H        -2.2941720349       16.4060449818       41.2498696663
  H        -1.6490782114       17.5570417574       39.9617308461
  H         7.3283526737       11.5828674144        3.0005938704
  C         7.5329742617       10.4709489412        3.0346138966
  H         6.6199556146        9.9295922664        3.1847311835
  C         8.2927440214       10.2889404732        4.3214600159
  C         8.3668366399       10.0590666967        1.7575958645
  C         7.5346130641       10.6996648726        5.5328390156
  H         8.5333405743        9.2157843217        4.3029457898
  H         9.1996700611       10.9476847861        4.4454894642
  H         8.7845553170        9.0771371431        1.8721877704
  H         9.2487680758       10.8075284070        1.6868439764
  H         7.5857268594       10.1936105680        0.9523211838
  C         7.0271733483        9.4406795899        6.3084019046
  H         8.1586075714       11.2224688360        6.2609406014
  H         6.8328510028       11.3739883642        5.1360547799
  C         6.2345985092        9.7232701698        7.5447278694
  H         7.9570747241        8.8588236106        6.4531235036
  H         6.3993347248        8.7396102754        5.7281630529
  C         5.0364481095       10.6879154617        7.5248153635
  H         6.8479385009       10.2613089338        8.3499570673
  H         5.8999163528        8.7670211609        7.9349392902
  C         3.8085040847       10.0765957211        6.9211531958
  H         4.7949223834       11.0173249827        8.5951976255
  H         5.2170936030       11.6905516893        7.0718886520
  C         2.5928933288       11.0759371780        6.8347313341
  H         3.5602774148        9.1706825971        7.5365972093
  H         4.1572801002        9.7892376439        5.8872598759
  C         2.8790770030       12.4214929947        6.2566246000
  C         2.1464420706       11.7313645097        8.1575675312
  C         1.3648974943       10.4961176709        5.9682428237
  C         2.6498090950       13.4668884672        7.0917089587
  C         3.3387988174       12.8078052665        4.9995033472
  C         2.2370071718       13.0758935655        8.3587705159
  C         1.7243905585       11.1119327829        9.2934660748
  H         1.6584933927       10.2672956989        4.9512495078
  H         1.0239465528        9.5371530761        6.4467994386
  C         0.0610705408       11.3408136462        5.9061762516
  S         2.9689107083       14.9894636524        6.3872300497
  C         3.3901678002       14.1556856938        4.8420136150
  H         3.4853112744       12.0391480625        4.2422501560
  C         1.8167009367       13.7232150759        9.4633065465
  H         1.6638633906       10.0196829790        9.2792896503
  C         1.3520548076       11.7071447493       10.4736132115
  H         0.2291646681       12.4384532310        5.7769692232
  H        -0.3234920772       11.3321514090        6.9260339864
  C        -0.9960998985       10.7335379347        4.9006035701
  C         3.8691112516       14.7475156845        3.6480484587
  C         1.3394866349       13.0319945956       10.5920860281
  H         1.9009231684       14.7779149852        9.4830070515
  C         0.9417754259       11.3136163914       11.6766871461
  H        -1.9342263677       11.0693035334        5.2774050339
  H        -0.9982670198        9.6953554831        5.1106180618
  C        -0.9653124659       11.2317204248        3.5503604576
  C         4.1012048226       16.1035896717        3.4127426074
  C         4.1292420126       13.9215243901        2.4611312869
  C         0.9650077668       13.7726920263       11.8394246508
  C         0.7664535285       12.3823333028       12.5757986103
  S         0.7098262462        9.8033768683       12.3062835695
  H         0.0241405572       11.7158681990        3.4117624180
  H        -1.6146315609       11.9777379120        3.1653432774
  C        -0.9636800293       10.0507866812        2.5469266626
  N         3.8368372764       17.0264658886        4.4445225283
  C         4.4486510689       16.6670183392        2.2338113247
  C         4.7445773758       14.5039816058        1.3252392060
  H         3.9585377007       12.8623877368        2.4394440139
  C        -0.3675248099       14.5659253526       11.6374051807
  C         2.0976057014       14.6518739319       12.4431065545
  C         0.4407912974       11.9261870109       13.9030931966
  C         0.3385701964       10.5334400589       13.8926301775
  H        -0.3273662514        9.3025657263        2.9818780538
  H        -2.0406357417        9.6572894797        2.6026617825
  C        -0.5112445743       10.5392671764        1.1630010136
  S         3.8636688635       18.4890748737        3.8736126149
  N         4.2954878401       18.1137111990        2.3659257251
  C         4.8297619818       15.9091426381        1.1024242300
  H         4.8549394442       13.8150545244        0.5291275251
  H        -0.4112679357       15.3872900529       10.8462299900
  H        -0.5612765105       15.0531006904       12.5749281471
  C        -1.5709448738       13.6281876941       11.2118293173
  H         2.2527414147       15.5123114314       11.8098273499
  H         1.8790976202       15.0860690180       13.3904435912
  C         3.3793648258       13.8218085656       12.5595426210
  H         0.4862603377       12.6105661305       14.7738834643
  C         0.0674430162        9.8127894059       15.1936584748
  H         0.4240549394       10.0971286050        1.1154216401
  H        -0.3879533051       11.6712995147        1.1962117253
  C        -1.5039294580       10.2011024350        0.0196977366
  C         5.1607097011       16.4893352533       -0.0508881021
  H        -1.1877256222       12.9802416903       10.4524955993
  H        -1.7762575261       12.9436674035       12.0637138631
  C        -2.8508472041       14.2958254022       10.7172455393
  H         3.7716397408       13.5525247765       11.4678505240
  H         3.2531466318       12.9490745478       13.1876447166
  C         4.5712376795       14.6050260235       13.0633419650
  C        -0.0329505452        8.3981537250       15.3182913558
  C        -0.3385602022       10.4651483253       16.4223534675
  H        -1.8609773188        9.1694311257        0.0272500441
  H        -2.3768362867       10.8110850432        0.1258166485
  C        -1.1321441164       10.6866761510       -1.3742150278
  H         5.0694973028       17.5529424907       -0.0569249046
  C         5.3947314384       15.9510341540       -1.3311535587
  H        -2.6176735257       14.9713544623        9.8743975741
  H        -3.4873307339       14.7745231398       11.5003739333
  C        -3.6544169761       13.1681544550       10.0364310223
  H         4.7826948251       15.4570742288       12.4305107665
  H         4.2208320207       15.0679562317       14.0087281027
  C         5.9181365155       13.8213504527       13.1167547371
  N         0.2008131713        7.5334554004       14.2432425036
  C        -0.2446419778        7.6837097731       16.4671652670
  C        -0.6331440362        9.7484127271       17.6136724544
  H        -0.3396556866       11.5748585844       16.4124070727
  H        -0.2031709646       10.2330029431       -1.6937746769
  H        -1.0712206377       11.7626713210       -1.4137514945
  H        -1.9781862343       10.2577014432       -1.9216497218
  S         5.5412457775       14.2282542956       -1.7828165705
  C         5.5115130449       16.8968151077       -2.4263177909
  H        -2.9819133339       12.4427087091        9.5807550358
  H        -4.2616709602       12.6224084263       10.8090376719
  C        -4.4361757334       13.7009297782        8.8724051341
  H         6.1450274575       13.1694225995       12.2432681753
  H         5.7451828647       13.0220276553       13.7922810122
  C         7.0495115104       14.5916943961       13.6444631234
  S        -0.0150474575        5.9979864456       14.7294822553
  N        -0.3300347795        6.3494752293       16.2481269361
  C        -0.5871061422        8.2749614589       17.7031904136
  H        -1.0511719220       10.2311530646       18.4704868433
  C         5.9334904637       14.8543964100       -3.4144202277
  N         5.9769924829       16.2298276396       -3.5037785762
  O         5.2984888434       18.1413208501       -2.3967121551
  H        -4.4103564824       14.7345387304        8.6461587784
  H        -4.0562498472       13.1039391669        8.0546088212
  C        -5.9104189727       13.3986076206        9.0089234144
  H         7.8168516689       13.8714553015       13.9375700422
  H         7.3541385042       15.2512739669       12.8297275559
  C         6.9164842759       15.5675082932       14.8382976588
  C        -0.9157410332        7.5613696263       18.8617343123
  S         6.5948379468       13.9071555625       -4.7493016978
  C         6.0313122828       16.9993973288       -4.7487828728
  H        -6.3522504337       13.5667175695        8.0469234933
  H        -6.2254519095       12.3925999868        9.3948456389
  C        -6.6292070844       14.4841329413        9.8678123614
  H         7.7982815329       15.4300636007       15.4877617146
  H         6.0433898946       15.3011194180       15.4144001061
  C         6.6487762795       17.1141419355       14.6069424103
  H        -0.9008329068        6.4856227691       18.7590536476
  C        -1.4578341947        7.9122534795       20.1221655234
  H         6.8789411312       16.7739307122       -5.4091339301
  H         6.3638246961       17.9737194925       -4.4854363369
  C         4.6616454687       17.0594966553       -5.5234671548
  H        -6.7412373781       15.3847661074        9.2274020573
  H        -6.0703481252       14.7813821721       10.7628226513
  C        -8.1286589129       14.1127790720       10.1901101135
  H         7.0116081851       17.4051615906       13.6047389244
  H         5.5470896409       17.2820764265       14.7020606876
  C         7.2936218128       17.9763217396       15.6804257480
  S        -1.9717706695        9.4981942463       20.6356803370
  C        -1.5757555463        6.8992035126       21.1573797067
  H         4.3374438551       16.0303474867       -5.6199140184
  H         4.8533365665       17.4738718134       -6.5604421830
  H         3.8934631653       17.5466033708       -5.0433346733
  H        -8.7223626581       14.9260822817       10.3915724629
  H        -8.5931832896       13.5010403976        9.3610768261
  H        -8.2457018065       13.4944773151       11.1505652016
  H         8.0947647907       17.5119500126       16.2525767644
  H         7.9372809603       18.7668295013       15.2025873272
  H         6.4609609365       18.3469838006       16.2961736478
  C        -2.1897255919        8.7642751935       22.2027958729
  N        -2.0152067705        7.4398617131       22.2590160357
  O        -1.0750106515        5.8255746079       21.0308495061
  S        -2.7928556619        9.4759386049       23.6826173251
  C        -2.1844138924        6.7214096429       23.4718054192
  H        -2.3845360065        5.7504743319       23.0152180641
  H        -3.0641851580        7.0043362653       24.0272581053
  C        -0.9368166979        6.8046541636       24.4020495142
  H        -0.3034357299        5.9689380810       24.2115360365
  H        -1.2515208609        6.7508005831       25.4805185725
  H        -0.4022760921        7.6845406920       24.1829020298
