352
i =
  H        -2.8584954402       15.0426414538       16.0774390026
  C        -2.6338539995       13.9977499776       16.3135946644
  H        -3.3909062778       13.4788053527       16.8093012607
  C        -1.4360706106       14.0051176945       17.2402696753
  C        -2.3171986864       13.3583060680       14.9697644821
  C        -1.6934446343       14.2817348693       18.7081336126
  H        -0.9722192462       13.0574491837       17.1381292083
  H        -0.6841509589       14.6575730563       16.9390921452
  H        -1.4475616244       13.8392523973       14.4694173337
  H        -2.0096950091       12.3256856054       15.0669464801
  H        -3.1480857568       13.4095005101       14.2623736445
  C        -1.6852060886       13.0800862655       19.5359831817
  H        -2.6620343921       14.7341583149       18.8111420304
  H        -0.9736371341       14.9988498059       19.1407352448
  C        -2.1139804675       13.1140145315       21.0189264128
  H        -2.3506689256       12.4304592621       19.0236524435
  H        -0.6762271613       12.6845649691       19.5576051385
  C        -1.0903819325       12.5337952183       22.1045876882
  H        -3.0867520622       12.6128845473       21.0658155582
  H        -2.4138169828       14.1097486267       21.3030411448
  C         0.1077309234       13.4408143267       22.2011458198
  H        -1.6301678133       12.4922375813       22.9989860116
  H        -0.7777346300       11.5092029546       21.9476864473
  C         1.3079889694       12.8642479765       22.9395361197
  H         0.3904103421       13.7540462377       21.2276782071
  H        -0.2480939862       14.4352120228       22.5024893944
  C         1.7894066179       11.6238323683       22.1824404699
  C         0.9536941028       12.1467313701       24.1716448391
  C         2.4793893618       13.8733905852       23.0389448824
  C         1.6576931790       10.5202900872       22.9963542986
  C         2.1558319864       11.2657016806       20.9225373905
  C         1.1737035998       10.8675272668       24.2754418328
  C         0.4077339692       12.7499080152       25.3182200331
  H         2.7265465758       14.2601089032       22.0517236532
  H         2.0956532867       14.7667715788       23.6127876060
  C         3.7749266036       13.3566979665       23.7653201550
  S         2.1077616631        9.0616462647       22.2525443017
  C         2.3186335933        9.9231884930       20.8100438757
  H         2.1704616890       12.0229188597       20.1133776465
  C         0.7848100779       10.1891119960       25.4005705287
  H         0.3042487787       13.8134915435       25.1981501720
  C         0.1751557146       12.0989134299       26.4674304719
  H         4.1997424995       12.6560230728       23.0142012094
  H         3.6219542524       12.8297776919       24.7445679409
  C         4.9072857837       14.3376013457       23.9463454034
  C         2.8102470086        9.2528109708       19.5859087287
  C         0.3739530083       10.7404037363       26.6148783968
  H         0.7999943536        9.0613420007       25.4927340637
  C        -0.2014387802       12.4406306883       27.7831917680
  H         5.6215469941       13.9682133064       24.7049484797
  H         4.5915050382       15.2426210668       24.4644932770
  C         5.6845843097       14.7713004645       22.6543064427
  C         2.8872659218        7.8500714978       19.3851223342
  C         3.3864425282       10.0639774354       18.4798237663
  C        -0.0209682888       10.0400043735       27.8754087445
  C        -0.2052757509       11.3655358764       28.6491264785
  S        -0.5997111392       13.9846703423       28.5621389958
  H         6.2919529587       15.6447421959       22.9677696605
  H         4.9576697313       15.1065748724       21.8753042815
  C         6.6005959444       13.6680874776       22.0239782285
  N         2.6827223574        6.8733758785       20.3450541994
  C         3.1040819971        7.3627236499       18.1196585493
  C         3.5820775883        9.5454401657       17.1799149387
  H         3.5414244330       11.1364354361       18.6446603911
  C         1.0812474869        9.1416453554       28.5378763491
  C        -1.3709899857        9.3088419463       27.7423054491
  C        -0.5885787432       11.7687003972       29.9519427328
  C        -0.8355304599       13.1155425610       30.0504122895
  H         7.6754459127       13.8916839796       22.3292920198
  H         6.3494514945       12.6914261539       22.4892176436
  C         6.5181318377       13.5574219209       20.4922961924
  S         2.7134264560        5.4223590586       19.5687309748
  N         3.0562631404        5.9425738906       18.1077182941
  C         3.3269785232        8.0880019357       16.9315181309
  H         4.1663134870       10.1674833838       16.4798863666
  H         1.4892514075        8.4733899213       27.7692876001
  H         0.6257633559        8.4720161667       29.3277725817
  C         2.2337553665        9.8884415498       29.1756550522
  H        -1.1915548957        8.3988024606       27.0535777076
  H        -1.6200366517        8.8587440928       28.7164731372
  C        -2.5422810821       10.1432395109       27.1991931366
  H        -0.7137791697       11.0213468341       30.6840646776
  C        -1.1424982706       13.8545627450       31.3185592466
  H         6.2455295923       14.5538367154       20.2198550940
  H         5.7062788946       12.8941084359       20.0833300998
  C         7.8895722458       13.1425600460       19.8440928948
  C         3.5936202983        7.4233916766       15.7134549574
  H         2.5577954621       10.6489477901       28.4883045034
  H         1.7718410894       10.3387687029       30.0344373651
  C         3.4530094333        9.0231490220       29.5278840193
  H        -2.3618688251       10.5310450836       26.2010994318
  H        -2.7078669581       11.1182868834       27.7882091351
  C        -3.8065210309        9.3340334917       27.0826949719
  C        -1.2870197111       15.2300912962       31.4019666229
  C        -1.4699093888       13.0993385449       32.5499516045
  H         8.4697539777       14.0339986041       20.0497947544
  H         8.4671383898       12.2830766392       20.4100345219
  C         7.7301491801       13.0433520094       18.3263212134
  H         3.4411695004        6.3102066292       15.7816901787
  C         3.8742153736        7.7822973814       14.4264317822
  H         3.8278765519        8.4055444737       28.7281406929
  H         3.0876806149        8.3572818142       30.2383771125
  C         4.5595306885        9.9235658564       30.0952019588
  H        -3.6688119965        8.5509425305       26.3285840593
  H        -3.9739120504        8.7637933260       28.0027835754
  C        -5.0517564674       10.1023082820       26.6644521931
  N        -0.9469668763       16.1718803096       30.4224987117
  C        -1.7949383447       15.8909133848       32.4820912473
  C        -1.9222768424       13.7823938391       33.6872865416
  H        -1.3995563143       12.0076383698       32.5102331419
  H         7.7093203470       13.9851838218       17.8299714459
  H         8.4511750784       12.4132890354       17.7295357310
  H         6.7081652858       12.6632866098       18.1675401456
  S         4.2763553912        9.3521483028       13.9641487844
  C         4.0064473136        6.7307791042       13.3690835268
  H         4.7205609872       10.7531369016       29.3665191846
  H         4.2145259612       10.4238025019       31.0614567755
  C         5.8376910082        9.1747819165       30.3448536410
  H        -4.7299412678       11.1206016113       26.4735447794
  H        -5.7474767315       10.1930263990       27.5490949072
  C        -5.6576265115        9.5381608133       25.3981096954
  S        -1.2952787298       17.6849680298       30.9110108689
  N        -1.9456355930       17.2298594658       32.3263121217
  C        -2.0420584101       15.2749967767       33.6770419071
  H        -2.2099340095       13.2477006580       34.5438221728
  C         4.2276196653        8.7420275786       12.2719163245
  N         4.2844985107        7.3792763682       12.2199491697
  O         3.8359822790        5.5719246035       13.5417897090
  H         6.4818114773        9.7279436340       31.0210443751
  H         6.2945817394        8.9755215406       29.4093760121
  C         5.7066085856        7.8199228018       31.0644886170
  H        -4.8190391131        9.2877046409       24.6640124195
  H        -6.0514970648        8.5505576980       25.5775824145
  C        -6.6711513072       10.4155695594       24.7162074384
  C        -2.4376292252       16.0529853170       34.8418510624
  S         4.7875902013        9.5994729357       10.8892045211
  C         4.2870420470        6.5554732603       11.0063934508
  H         6.3021470964        7.8744694344       31.9218321536
  H         4.6683220173        7.6119453283       31.3501478068
  C         6.3390598215        6.6851889285       30.3491555041
  H        -6.4539216758       10.6610717082       23.6503332826
  H        -6.5084962691       11.3906150685       25.1808107452
  C        -8.1047693883        9.9498907722       24.6408370729
  H        -2.2849571028       17.1197582365       34.8014609129
  C        -2.9926706916       15.7003821361       36.0884562851
  H         4.9889819885        6.9953243986       10.2442662653
  H         4.7624559519        5.5566335387       11.1978656498
  C         2.8946615985        6.3300952347       10.4204508481
  H         7.2947604031        7.0006193635       29.8260874498
  H         5.7873249844        6.4533394174       29.3949678001
  C         6.4399551550        5.5023592669       31.2622661853
  H        -8.6940596095       10.7951960183       24.0901831867
  H        -8.2233293373        8.9970006844       24.2498904068
  C        -8.8174550511        9.9391990085       26.0026729773
  S        -3.2579805394       14.1414565031       36.7643551866
  C        -3.2495802038       16.8471726811       37.0304255622
  H         2.4776638061        7.2079863998       10.0123095430
  H         2.9612465362        5.5172895387        9.6807514666
  H         2.3134500967        6.0443516858       11.2756285533
  H         7.3521778035        4.8719893029       31.0151622877
  H         5.5874819790        4.8153055990       31.1468146759
  H         6.5418466277        5.7399799059       32.3132095898
  H        -8.5771516909       10.7800534720       26.6633188972
  H        -8.6369949390        8.9901504900       26.5373277595
  H        -9.9163417479        9.9421529530       25.8564911357
  C        -3.9204401726       15.0449210704       38.1852660086
  N        -3.7570422368       16.3821665806       38.1775653256
  O        -3.1712649613       18.0233554425       36.7627493623
  S        -4.6684396645       14.2114424896       39.5859762050
  C        -4.1780319375       17.2650054775       39.3187698113
  H        -4.2434703359       18.3160178735       39.0715096731
  H        -5.2341170174       16.9260860558       39.5050292470
  C        -3.2913860755       17.0639962428       40.5443325736
  H        -2.3962539542       16.4603937533       40.3923690301
  H        -3.0181633870       18.0550814635       40.9772612995
  H        -3.8135422339       16.4682018733       41.2848078366
  H         7.4089566534       11.6381593226        3.3428917784
  C         7.8804908955       10.7200994811        3.5500966538
  H         7.1141795462        9.9814579776        3.7982136522
  C         8.7830233570       11.0226486724        4.7000482506
  C         8.6134880360       10.2257310340        2.2784135743
  C         7.9629983709       11.0278249017        5.9857005659
  H         9.5331840402       10.2757234677        4.7714255381
  H         9.2926062925       11.9476870492        4.4879806212
  H         8.7040889226        9.1475665755        2.2275270901
  H         9.7016764383       10.6262947608        2.2179571916
  H         7.9800836547       10.5963990887        1.4824946953
  C         7.4515651573        9.6720479914        6.4952664066
  H         8.5770787207       11.3719106781        6.7745357719
  H         7.1886335285       11.7380009612        5.7713273715
  C         6.5641741325        9.6876910593        7.7489041593
  H         8.3459172768        9.0402582669        6.6762297286
  H         6.9209440591        9.1267282378        5.7358872681
  C         5.3026526232       10.5565796674        7.5866845091
  H         7.0923073849       10.2488283470        8.4771600008
  H         6.3096844394        8.7298298994        8.2146621676
  C         4.1255945661        9.8549120517        6.7528313388
  H         4.9028492554       11.0368262056        8.4945917280
  H         5.5480196265       11.3609675153        6.9935469491
  C         2.8012965561       10.6846537705        6.5887009764
  H         3.7827729426        8.9428595892        7.2817347816
  H         4.4964008355        9.5970313393        5.7444808079
  C         3.1686905085       12.0369969718        5.9673508792
  C         2.3464307324       11.3453288219        7.7941210823
  C         1.7565643636        9.9163414760        5.7896121980
  C         2.8959864395       13.1199748052        6.7869754344
  C         3.6757466424       12.4255302010        4.7107334833
  C         2.3667472494       12.7147100844        8.0140983745
  C         1.9960769860       10.6931721832        8.9565846132
  H         2.1938718377        9.5407276454        4.8347306327
  H         1.4970980041        9.1097534640        6.4211751726
  C         0.4253154234       10.7078577075        5.5029100111
  S         3.2342896746       14.6136095311        6.0243448934
  C         3.6587073524       13.8040663096        4.5954798695
  H         4.0608435894       11.6922957357        4.0029683324
  C         2.0833895763       13.3188632990        9.2485401240
  H         2.0112536826        9.6289147268        8.9322500491
  C         1.6876865646       11.2444496556       10.1662231793
  H         0.7323051198       11.5737909442        4.8400830205
  H         0.1857846603       11.1469996780        6.4311539765
  C        -0.6333849713       10.0347859029        4.5982995329
  C         4.1959498829       14.5589345930        3.4542883594
  C         1.7042206798       12.5675164623       10.3540212121
  H         2.2005798917       14.3096726723        9.4170385982
  C         1.3863412830       10.7841312028       11.4079659301
  H        -1.5554292943        9.7204436411        5.0802988821
  H        -0.2959973106        9.0124875787        4.2494960674
  C        -0.9082504449       10.7491095913        3.3274912320
  C         4.2919624287       15.9658807106        3.2877693874
  C         4.6245888219       13.7859926279        2.2842351875
  C         1.4986433039       13.1743274776       11.7105536562
  C         1.2074460207       11.8249801955       12.3416778094
  S         1.0929168690        9.1993283737       12.0764368604
  H         0.0729842467       11.0149751696        2.9066686636
  H        -1.5106551817       11.6421054379        3.3819292632
  C        -1.4481079800        9.8973504329        2.2180409132
  N         3.9910855717       16.9414619190        4.2529830873
  C         4.5463010445       16.5588102507        2.0612549998
  C         4.9852044127       14.4065623859        1.1058003163
  H         4.8833816684       12.7417855332        2.3972221631
  C         0.2872138281       14.1265017711       11.7537536678
  C         2.9048958985       13.7427149384       12.2212651241
  C         0.8386317835       11.3567202894       13.5836271884
  C         0.8708413945        9.9644763693       13.5999911706
  H        -2.2614317685        9.2915145574        2.7164659959
  H        -1.9215896290       10.4871569847        1.4473318173
  C        -0.4449031486        8.9597737257        1.4527793264
  S         3.9278068479       18.4152098246        3.5183266434
  N         4.3144992011       17.9371205480        2.0258577033
  C         4.9442161100       15.8660718133        0.9246823671
  H         5.3284174993       13.7986618794        0.2901788012
  H         0.4343453966       14.9737782633       11.1655341748
  H         0.1593937049       14.4888796620       12.7631388723
  C        -1.0164526026       13.4734581164       11.2893435683
  H         3.7269353394       13.1910950779       11.8037056894
  H         3.0149562386       14.7288563845       11.8325814699
  C         3.0963266054       13.7402602438       13.7369388421
  H         0.9040722147       12.0113333264       14.4308161091
  C         0.5732986670        9.2667053315       14.8728939700
  H        -0.9349762482        8.0752669792        1.1456110492
  H         0.2849735605        8.5487889436        2.1741698565
  C         0.3075174183        9.5816775460        0.2407191202
  C         5.1979821754       16.6389727055       -0.2882753267
  H        -0.8239706866       12.7202850635       10.4924770016
  H        -1.3310475612       12.9903018601       12.1832214565
  C        -2.1109144104       14.4569478733       10.8362518926
  H         3.0227359211       12.7742335613       14.1706639883
  H         2.2029077050       14.1888423172       14.1004415944
  C         4.3301794710       14.5667726265       14.0970814966
  C         0.3756024804        7.9133807749       15.0501609773
  C         0.3129532481       10.0696977905       16.1206649512
  H         0.7168332311       10.5813870261        0.4753746278
  H         1.2364269438        9.0425511931        0.0307004839
  C        -0.5059067028        9.6555899641       -1.0097346961
  H         5.0154202261       17.6956860710       -0.2666177520
  C         5.5413221571       16.2612317306       -1.5571134193
  H        -1.9049947187       14.9079844305        9.8661412165
  H        -2.2316413510       15.3644967721       11.4611554174
  C        -3.4365080383       13.7613372053       10.6714689343
  H         4.7670198147       15.1550423272       13.2946799591
  H         4.0805926197       15.2225599100       14.9347190684
  C         5.5248415754       13.8375688362       14.6790702502
  N         0.6761789016        6.9995168002       14.1034893191
  C         0.0461324477        7.3031151501       16.2190739231
  C         0.0595520017        9.4706389697       17.3631201794
  H         0.2408871669       11.1147467396       16.0332988672
  H        -1.5949281338        9.5932902455       -0.8282949140
  H        -0.2038272555        8.8044089547       -1.7095999178
  H        -0.2317381404       10.5739754583       -1.6118816609
  S         5.7096038297       14.6285082520       -2.1673290961
  C         5.5178531399       17.2709003046       -2.6294655037
  H        -3.2847430106       12.6628356449       10.4994655082
  H        -4.0116839965       13.8024244978       11.6593073949
  C        -4.1899181835       14.2286890655        9.3849575044
  H         5.4233778104       12.7650504034       14.3755381148
  H         5.3966668747       13.8518985480       15.7774949782
  C         6.7685816040       14.5467706712       14.3451655878
  S         0.6105707023        5.4994668844       14.7013291362
  N        -0.0135652662        5.8723875641       16.1650171870
  C        -0.1229446895        7.9775374804       17.4334996459
  H        -0.1585132690       10.1262336265       18.1662935534
  C         5.8482233648       15.4075969247       -3.7401423454
  N         5.7564741782       16.7234645585       -3.8171059255
  O         5.2845538446       18.4735356215       -2.3714043305
  H        -4.5073158407       15.2621669954        9.4998458203
  H        -3.5918889301       14.2530042200        8.4401428000
  C        -5.3559358199       13.2919662430        9.1271128892
  H         7.5688911766       13.8444766273       14.5205083213
  H         6.8663920337       14.7411616339       13.2768482854
  C         7.0140743244       15.7479276706       15.2387731447
  C        -0.4773283677        7.2367276853       18.5420101239
  S         6.0911083996       14.4954977821       -5.2530463615
  C         5.7556156025       17.3941610114       -5.1394971861
  H        -4.9800672987       12.4938504444        8.4025634744
  H        -5.5974270763       12.8544695055       10.1026449520
  C        -6.5512096250       14.0153429287        8.5902029914
  H         7.0752240470       15.3505507083       16.2958994175
  H         6.1514355818       16.3833723581       15.0998827010
  C         8.2972610819       16.5164111066       14.9035825096
  H        -0.2417000548        6.2282395627       18.5558684888
  C        -0.9790584146        7.5807292430       19.7450089661
  H         6.4006823818       16.9058748829       -5.9774905221
  H         6.1547124827       18.4619780457       -4.8768909995
  C         4.2851185107       17.4093767091       -5.5836288685
  H        -6.9446241154       13.4459457852        7.7132603912
  H        -6.3868302438       14.9472921571        8.0384202840
  C        -7.6827997584       14.1150510495        9.6674538603
  H         8.7153668780       16.8540953386       15.8202416914
  H         9.0516642175       15.7757245218       14.5728744928
  C         8.0791461024       17.6419913697       13.8885608322
  S        -1.4767083147        9.1487038316       20.2054230837
  C        -1.0416409075        6.5437515247       20.7892728423
  H         3.6244930578       17.0141658815       -4.8564323310
  H         4.2262458839       16.8104293238       -6.5357226342
  H         4.0947043714       18.4133007257       -5.9023783981
  H        -8.6589716452       14.4432161162        9.3279739844
  H        -7.8217722080       13.2217338362       10.2651559882
  H        -7.3396822114       14.8453835037       10.3682008441
  H         7.1731057887       18.2264855231       14.0983653701
  H         8.9403480838       18.3064835178       13.7830680913
  H         8.0385074260       17.0924727504       12.8934942130
  C        -1.5367011779        8.4548387431       21.8959041137
  N        -1.4815513138        7.0890852274       21.9245488807
  O        -0.7899007987        5.3097603501       20.6614283858
  S        -1.9127691660        9.4462782986       23.3328459841
  C        -1.5293265567        6.3519769948       23.1756808211
  H        -1.7067934260        5.2916814137       22.9495545147
  H        -2.3396191540        6.7427667360       23.8193342308
  C        -0.2264026843        6.3931651980       23.9173838417
  H         0.0397064218        5.4395494545       24.3855384135
  H        -0.1311124104        7.2742397421       24.5600742477
  H         0.4754860030        6.4455225491       23.1054106926
