352
i =
  H        -4.0320689760       14.5387649397       16.2765408546
  C        -3.3271832601       13.7615371376       16.2987818414
  H        -3.8837534577       12.8422790381       16.3338598908
  C        -2.1354224664       13.9022682071       17.3524685466
  C        -2.5891863023       13.8642402978       14.9502934876
  C        -2.5672030568       13.7022896643       18.7952304637
  H        -1.3345290706       13.1821740861       17.3278777916
  H        -1.7480663074       14.9031463106       17.1040005063
  H        -1.5967145684       13.9602046527       15.1417476137
  H        -2.7866904246       12.9810318281       14.3913510188
  H        -2.9601572333       14.6926670979       14.4882290465
  C        -1.3910190429       13.5167444353       19.8654492582
  H        -3.1925069324       12.8328267982       18.6629352701
  H        -3.1374115132       14.6835294512       18.9512682380
  C        -2.0826042326       13.5357126451       21.2154349728
  H        -0.7941627461       12.6214956841       19.6512018888
  H        -0.7491701228       14.3046874083       19.7800301836
  C        -1.2876415893       12.8691357995       22.3091027421
  H        -2.8417742391       12.8599821803       21.0970377534
  H        -2.4669297793       14.5233570320       21.3874524576
  C         0.0479599292       13.6599490789       22.5753759002
  H        -1.8275963722       12.7407113328       23.2500744154
  H        -1.0367358239       11.8054268432       22.1917353465
  C         1.1143885093       12.8997986064       23.3586193523
  H         0.4875747662       14.0290552565       21.5764853381
  H        -0.3622221306       14.6596614977       23.0444869978
  C         1.3145693356       11.6140270500       22.6680829328
  C         0.5807007916       12.1741759909       24.5151192128
  C         2.3956718189       13.8089090516       23.5178757162
  C         1.0688126863       10.4477293470       23.4362157043
  C         1.8078806066       11.2480893654       21.3892828356
  C         0.5356021820       10.8107922724       24.6698149669
  C         0.0569698405       12.8900499159       25.6498076881
  H         2.6528802569       14.2807053708       22.5332652046
  H         2.2868120120       14.4759168796       24.4037026786
  C         3.6574257870       12.8837894670       23.9735520945
  S         1.3375692604        8.9419410482       22.7062718406
  C         1.9186797337        9.9027591263       21.2648437149
  H         2.0671537065       12.0014775706       20.6803512317
  C         0.1551359810       10.2332801204       25.8093135488
  H         0.2704070899       13.9190328149       25.5757363492
  C        -0.3979246242       12.2791491891       26.8095990096
  H         3.7997779566       12.0112422286       23.3214782309
  H         3.4666882321       12.3925245228       24.8995239100
  C         4.9242962069       13.7652672627       24.0026259963
  C         2.4065172879        9.1241853867       20.0186020422
  C        -0.3516501959       10.8931608489       26.9508467560
  H         0.3456733613        9.1475486479       25.9793308371
  C        -0.8088557823       12.6407827034       28.0601379880
  H         5.6910269384       13.4488904058       24.7314541217
  H         4.5224586696       14.7613904087       24.4269189662
  C         5.6240400998       13.9657330666       22.6394537766
  C         2.5158741576        7.7199762027       19.7631698127
  C         2.8175851466        9.8569230915       18.8886287962
  C        -0.8219261725       10.2462977382       28.2650454377
  C        -1.0527504440       11.5895425579       28.8965217404
  S        -1.2004145072       14.1201165997       28.8037903802
  H         6.4902779211       14.7097777574       22.6752860258
  H         4.8800909658       14.1544383327       21.8998086856
  C         6.3166786057       12.6972243103       22.1378835082
  N         2.1155522405        6.7643448318       20.7670608389
  C         2.7872222512        7.1172911014       18.6334030816
  C         3.2150062031        9.3450768664       17.6433734450
  H         3.0620962309       10.8832539691       18.8250479166
  C         0.1962348740        9.3419850143       29.0907671433
  C        -2.2089286014        9.4313979872       28.0647436701
  C        -1.4772019244       12.0252316979       30.1185397472
  C        -1.5965112148       13.3482944112       30.2107305408
  H         6.6248874236       12.1302308978       23.0096579181
  H         5.4996427328       12.2912786300       21.5501291143
  C         7.4917923530       12.9434108458       21.1157837765
  S         2.3226364029        5.2352235687       20.2747322250
  N         2.6239456956        5.6650264021       18.7725342412
  C         3.0552656181        7.9068221894       17.4560475418
  H         3.4591377368       10.0231319348       16.8437503088
  H         0.1867195874        8.3277668966       28.8011283640
  H        -0.1081319867        9.4017195929       30.1935689507
  C         1.5553645962        9.9986565944       29.2421448932
  H        -1.9880897829        8.6287928361       27.4053531581
  H        -2.3544075627        8.9768368566       29.0426609627
  C        -3.3233910161       10.2766223123       27.6583575771
  H        -1.8225365668       11.2967521482       30.9026069275
  C        -1.7467287661       14.1120488491       31.5222006878
  H         8.1912566407       12.0420298207       21.0046069093
  H         8.1209405433       13.7015898181       21.4652478429
  C         6.9054183497       13.1671178519       19.7496262884
  C         3.1431354899        7.2303015333       16.2321004847
  H         1.8540431486       10.2622817458       28.2927288529
  H         1.4325724061       10.8050408395       29.8023812463
  C         2.5397337361        9.1945265679       29.9336053874
  H        -2.9505338136       10.6335733057       26.7596878091
  H        -3.5064271023       10.9973229551       28.3629833719
  C        -4.6040199223        9.4682327489       27.4384558641
  C        -1.7471473617       15.5258711259       31.7206800237
  C        -1.8855580173       13.3491543886       32.7714412846
  H         5.9818051784       12.5905115982       19.5445591290
  H         6.5483505564       14.1144150930       19.8903919330
  C         7.9907819429       12.9946691861       18.6670874022
  H         3.0024189556        6.1171477881       16.2774308901
  C         3.4515469073        7.5648857651       14.9699443489
  H         2.9297802643        8.3586008641       29.4560165301
  H         1.9580081029        8.6487104485       30.7795746929
  C         3.5649546991       10.1226099149       30.6847704423
  H        -4.3248289171        8.6086922855       26.8174596259
  H        -5.1199579583        9.2223626596       28.4285082802
  C        -5.4893698424       10.2015509182       26.4756376851
  N        -1.5752502681       16.4309560085       30.6162766803
  C        -1.9903954154       16.1597567348       32.8939029526
  C        -2.0661965785       13.9860831759       33.9771188158
  H        -1.8263939820       12.2781010569       32.7790656179
  H         8.1781261528       14.0315683949       18.2339093314
  H         9.0320279655       12.6644064988       19.0475459635
  H         7.7222606100       12.1651173267       17.9619085413
  S         3.8000012346        9.1515213273       14.3513070779
  C         3.6555061413        6.4316671941       13.9463758295
  H         3.6146646265       11.0793839184       30.2241086155
  H         3.3121339633       10.1655476605       31.7642758074
  C         5.0244379628        9.6268838995       30.6508484513
  H        -4.8618554012       10.7514883908       25.7487685799
  H        -6.0317808690       10.8679309345       27.0586075804
  C        -6.3881716781        9.2363666024       25.6792782499
  S        -1.6399440517       17.9662318562       31.2024125186
  N        -1.9321569400       17.5520555011       32.7766064684
  C        -2.1834417965       15.5025840514       34.1468582873
  H        -2.1293041290       13.4230486547       34.8160526428
  C         3.8560452011        8.3746385257       12.7651734772
  N         3.9632592126        7.0122023655       12.7565362616
  O         3.4209809903        5.2417293483       14.2154102862
  H         5.5876217155       10.3349582647       31.1237085341
  H         5.3705925927        9.4934151952       29.6278525587
  C         5.1710272090        8.4182481662       31.4545023425
  H        -5.6967287761        8.8235512805       25.0892223751
  H        -6.6801056729        8.4296453122       26.1738867929
  C        -7.5100084871       10.0742576327       24.9533339185
  C        -2.2773833539       16.2982876068       35.3609520406
  S         3.9667480830        9.2793773275       11.2841191993
  C         4.0003518336        6.2998135411       11.5550085213
  H         5.5434598964        8.7871446538       32.4015904153
  H         4.3722181134        7.7420583586       31.7748875748
  C         6.1700883022        7.4231403915       30.8089825558
  H        -7.6431842660        9.6296556600       24.0224973351
  H        -6.9428620757       11.0084156543       24.8660566002
  C        -8.8853029151       10.1707857857       25.7269094466
  H        -1.9827517358       17.3328683293       35.1080495935
  C        -2.8295748469       16.0212526878       36.6002526915
  H         4.9160358763        6.6556590652       11.0428058637
  H         4.4790224034        5.2627554240       11.7354481169
  C         2.6178655603        6.2398818284       10.8928165176
  H         7.2488282203        7.8477763677       31.0042961030
  H         6.1660237065        7.2174954378       29.6891730763
  C         6.2277208695        6.0426360307       31.5003107632
  H        -9.6822256424       10.4150914494       25.1094259333
  H        -9.0160718223        9.1349226959       26.0432394751
  C        -8.7526882680       11.0758933066       26.9942830963
  S        -3.3559370147       14.4411688305       37.2071009695
  C        -3.0305562374       17.1596621950       37.4768711565
  H         2.7751316251        6.8508581018       10.0074220751
  H         1.9993567675        5.2807316324       10.5829534176
  H         2.0067117120        6.8162344641       11.6760826577
  H         5.2469110933        5.5847498129       31.2698604462
  H         6.4215317575        6.1947661145       32.5684065765
  H         7.1436542569        5.6403923571       31.0519955506
  H        -8.3600905536       10.3889824731       27.7970131647
  H        -9.7220434970       11.3053649055       27.3463427815
  H        -8.1179986887       11.9032874256       26.8579720676
  C        -3.8609260641       15.3279456226       38.6677933293
  N        -3.6889895048       16.6798089405       38.6270360653
  O        -2.7303798956       18.3412501169       37.2934102544
  S        -4.6980615665       14.6037765206       40.0478038340
  C        -3.8731329681       17.5135150788       39.8082169326
  H        -3.8827109522       18.5720403220       39.6572404135
  H        -4.7735691548       17.2178636986       40.2977928861
  C        -2.6177083007       17.4393387369       40.7093190617
  H        -1.7334540027       17.7509186704       40.2480484628
  H        -2.8377161142       17.8015504632       41.6517200213
  H        -2.3238184107       16.3727706864       40.6514571534
  H         7.3592869050       11.2725437081        3.5376010312
  C         7.8740792963       10.3554076864        3.5704667865
  H         7.2762155224        9.4574915430        3.4794347962
  C         8.5980850960       10.2625704378        4.9364134411
  C         8.8308701579       10.4551731186        2.3703740628
  C         7.7065609798       10.5712885703        6.0351950154
  H         8.9301524736        9.2381741853        5.1403720464
  H         9.4840392672       11.0122428529        4.8891109650
  H         8.1986711488       10.7035003672        1.4854748998
  H         9.5891944558        9.7025711166        2.0898448878
  H         9.3969822227       11.3768279888        2.4021826900
  C         7.1123107993        9.2207924690        6.6773122924
  H         8.3902755544       11.0957212914        6.5794531472
  H         6.9929484361       11.2721866080        5.8108172280
  C         6.5393872421        9.3145201639        7.9875954505
  H         8.0022997507        8.6645384495        7.0190747057
  H         6.5279941241        8.6271287716        5.9897521060
  C         5.3538414214       10.2836797323        8.1674811388
  H         7.3589353952        9.6493774039        8.7035008560
  H         6.1586803326        8.3938321823        8.4504707711
  C         4.1479533657        9.7563911993        7.4332263560
  H         5.2234278014       10.4549840423        9.1533371747
  H         5.6305608127       11.3026417974        7.9386467007
  C         2.8623229030       10.6467299262        7.1599339100
  H         3.9402661784        8.9204153134        8.0587285056
  H         4.4773220169        9.3153276501        6.4188450582
  C         3.2524734745       11.9899933498        6.5121246163
  C         2.5120003848       11.4060349189        8.4116650567
  C         1.6928643224        9.9301116851        6.3223518612
  C         3.0071595518       13.1157577070        7.2381782755
  C         3.9165049547       12.3074304443        5.2815727475
  C         2.5184158190       12.7682925534        8.5263554530
  C         1.8067707937       10.8026716516        9.4467875626
  H         2.1559998633        9.5210354621        5.3993252076
  H         1.4507924950        9.0528094768        6.8692261569
  C         0.5485112468       10.7471627169        6.0969709433
  S         3.3727088351       14.5511041508        6.3835354129
  C         3.9066966540       13.6524900049        5.0299946299
  H         4.3808719979       11.5085872688        4.8488425092
  C         2.0749918725       13.4513166092        9.6740554761
  H         1.7785801596        9.7009339838        9.4864400983
  C         1.5685555681       11.4249058585       10.6422662141
  H         0.8236659607       11.6664495834        5.6419233558
  H        -0.0231680933       10.9754487381        6.9840707825
  C        -0.5320095122       10.0742581129        5.0227986406
  C         4.3879254445       14.3576420467        3.7728084579
  C         1.5868538923       12.7629918611       10.7801347096
  H         2.1238751549       14.5546692476        9.8008179206
  C         1.1242912320       11.0339221130       11.8938792791
  H        -1.5035447470       10.4745025241        5.1316938813
  H        -0.6639238885        8.9504314368        5.2038865485
  C         0.0348827873       10.3732001319        3.5885672946
  C         4.3295501621       15.7508524319        3.4303174910
  C         4.7973906038       13.4322030655        2.6364020751
  C         1.1623299076       13.4782931144       12.0373131433
  C         0.7899214371       12.0986205475       12.6946963337
  S         0.6614340710        9.5122611740       12.5859875708
  H         0.7969174836        9.5552493037        3.5525885551
  H         0.5492516338       11.3249102523        3.5676327708
  C        -1.0530644276       10.2848702640        2.5678697209
  N         3.9775635582       16.8036116346        4.2934190040
  C         4.5733202734       16.1458105395        2.1918048943
  C         4.9695497347       13.8230678520        1.2870237986
  H         5.0533402831       12.3222429386        2.6491606911
  C        -0.0358394263       14.3626942336       11.6257497848
  C         2.2625784713       14.2930500192       12.7288551858
  C         0.3019581424       11.7349194195       13.9559620867
  C         0.3486657118       10.3718619344       14.1050808219
  H        -1.7076440487        9.4682151580        2.7855830807
  H        -1.6519613776       11.1854728526        2.4701599455
  C        -0.4434892765       10.2925653731        1.1756805704
  S         3.9601051719       18.1905296218        3.5234461716
  N         4.3420619313       17.5505616884        2.0200059429
  C         4.9782463721       15.3530010287        1.0412394931
  H         5.4453969655       13.1205170318        0.6300470546
  H         0.2390101097       15.2839668870       10.9833512623
  H        -0.3098917703       14.7408809433       12.5613585720
  C        -1.1365330079       13.6470365145       10.8775531176
  H         2.6486758134       14.9167018502       11.9437338705
  H         1.7627213762       14.7911197429       13.5877054545
  C         3.4218986995       13.3447996459       13.1020443703
  H         0.0351401408       12.5070744338       14.6858171388
  C         0.0565907874        9.6007334084       15.3473313278
  H         0.5743254820       10.1261790282        1.0647162154
  H        -0.5936518296       11.4260584453        0.8405402796
  C        -1.2897867503        9.4658912077        0.0624863152
  C         5.0863971950       15.9477151848       -0.2225317995
  H        -0.9586658630       13.6382078813        9.8509703206
  H        -1.2579914171       12.5779895212       11.2014037606
  C        -2.5057696201       14.2837770707       11.1694863536
  H         3.9281700834       12.9821716010       12.2535697307
  H         3.0530882828       12.5985568589       13.7922434269
  C         4.3386537768       14.3437020060       13.7121886107
  C         0.0495404166        8.1573228704       15.3700332760
  C        -0.1210533596       10.3130540778       16.5696488122
  H        -1.6050119048        8.4981211427        0.5851446883
  H        -2.3436514905        9.9698832393       -0.1003984992
  C        -0.5301720605        9.4516381360       -1.1883317275
  H         5.2070142337       17.0237205180       -0.2362727802
  C         5.3950800367       15.4867896313       -1.4976624987
  H        -2.6238078108       15.1433282216       10.4633846387
  H        -2.4866042183       14.6380098269       12.2234939228
  C        -3.5197830239       13.1379762375       10.9652952612
  H         4.6830831137       14.8966330017       12.8148082541
  H         3.7100532483       14.9298703237       14.3815003460
  C         5.4955502030       13.5454462446       14.3698201261
  N         0.1694718100        7.2445836068       14.3068462691
  C        -0.1880294849        7.4533438366       16.5038451848
  C        -0.2207021290        9.5699335254       17.8113288623
  H        -0.1420893279       11.4330279435       16.5966971401
  H        -0.9413744548        8.6781897803       -1.8204848005
  H         0.5570707958        9.2659715855       -1.0660282822
  H        -0.6357791825       10.4002802246       -1.6577293704
  S         5.7677013625       13.9462374943       -1.8890680473
  C         5.3895213250       16.5589338448       -2.6354833401
  H        -3.1652431866       12.3500677263       10.3946241977
  H        -3.5426908805       12.7208777848       11.9649791129
  C        -4.7960378565       13.6560017542       10.5800448978
  H         5.7620181025       12.6493998707       13.8243026393
  H         5.1456992083       13.3164777501       15.4520076656
  C         6.8826830678       14.1723584998       14.4821262280
  S        -0.0416657925        5.7089860493       14.8632693174
  N        -0.4750654155        6.0493584228       16.4007301003
  C        -0.4187540569        8.0865579669       17.7437559629
  H        -0.1235502065       10.1048186636       18.7393975658
  C         6.0258039882       14.5945281869       -3.5298076057
  N         5.8453589075       16.0131656544       -3.6806535064
  O         5.2105999029       17.7967848381       -2.5221133992
  H        -5.5655741250       13.2381902552       11.2350939839
  H        -4.8025553247       14.7450132816       10.5983799480
  C        -5.2000594466       13.2894951754        9.1765028030
  H         7.5505718503       13.5862109194       15.1133345661
  H         7.1389013570       13.9089317830       13.4622677189
  C         6.8959423762       15.5604471182       15.0068509948
  C        -0.6520198951        7.3307338934       18.9299493500
  S         6.6340462311       13.7280238592       -4.9723721807
  C         5.9758872524       16.7476180331       -4.8758596703
  H        -4.5168324118       13.9163867485        8.6126802068
  H        -4.8147340243       12.2921536249        8.9070092995
  C        -6.5552632441       13.7896004909        8.7767592270
  H         7.1565773594       15.5198102467       16.0823221552
  H         5.9211317754       15.9447888238       15.0666292112
  C         7.8795290895       16.4467540881       14.2575535657
  H        -0.0602169405        6.3461640773       18.8888178043
  C        -1.1682182867        7.7576916302       20.1472460987
  H         6.6897006048       16.4657645297       -5.5365286554
  H         6.2940004672       17.7896861049       -4.7674060450
  C         4.6921924318       16.7799884312       -5.5747643180
  H        -6.7743090579       13.3859957288        7.7762857722
  H        -6.3354913673       14.8100159117        8.6045903032
  C        -7.6437853979       13.5057111329        9.8321445228
  H         8.7901812544       15.9844089212       14.1826208806
  H         7.5535270037       16.4606946806       13.1429511912
  C         8.0746046295       17.8083858948       14.8460151649
  S        -1.7286100712        9.2467131227       20.5720424003
  C        -1.2878359205        6.6107283620       21.1189890647
  H         3.7422108505       16.4195748521       -4.9848313683
  H         4.8451803518       16.0904784930       -6.4441257402
  H         4.5350228085       17.8272768059       -5.9666118042
  H        -7.4743443351       14.3401991177       10.4643920308
  H        -8.5587560149       13.6353069686        9.2665807564
  H        -7.5004073306       12.4882384845       10.2624158861
  H         8.3469510907       18.6274076011       14.2005150831
  H         7.1873358491       18.2567557083       15.2878957997
  H         8.8561241997       17.7942492603       15.5590575717
  C        -2.0195810166        8.4968588295       22.1496443739
  N        -1.8182434969        7.1361330717       22.2040760604
  O        -1.0743451182        5.4275573117       20.9022041936
  S        -2.7440203548        9.2679472164       23.6366501700
  C        -2.2025895275        6.2704006127       23.3051321470
  H        -2.2439576888        5.2504466612       23.0099176001
  H        -3.1774770114        6.5052646882       23.7164297123
  C        -1.1689977103        6.2394216459       24.4461817783
  H        -1.2993013978        5.2382325717       24.7574600838
  H        -1.4381557228        6.8966583655       25.2241905567
  H        -0.1518809995        6.4865664437       24.1589286289
