352
i =
  H        -3.8658530774       14.8506459152       16.5546520432
  C        -3.4878363414       13.8634218107       16.5376437539
  H        -4.3692317840       13.2898160703       16.7111450091
  C        -2.2817985606       13.6002956365       17.4531559216
  C        -3.1640523992       13.4692486719       15.0843190712
  C        -2.7475884133       13.3536891182       18.9046615700
  H        -1.6767818084       12.6134911791       17.1474048374
  H        -1.5453168261       14.4639583625       17.5658935379
  H        -2.1149522087       13.2493798126       15.0012702689
  H        -3.5816095495       12.5333541919       14.6580492447
  H        -3.4987433736       14.2640907765       14.4334252248
  C        -1.6212205018       13.2938780655       19.8353127049
  H        -3.2275586467       12.3957341020       18.9758759050
  H        -3.4381437482       14.0388606281       19.2791695154
  C        -2.1296715985       13.0285977996       21.2867400698
  H        -0.8771263450       12.5433599846       19.5052437498
  H        -1.0383096591       14.2058491727       19.7985233322
  C        -0.9662370289       12.7285868572       22.2223911077
  H        -2.8230958012       12.1546875115       21.2873096999
  H        -2.7919370431       13.8489635644       21.5427967624
  C         0.2094944166       13.7643661137       22.5089141747
  H        -1.4993986808       12.4903406529       23.1322324777
  H        -0.6355834385       11.7580040709       22.0016040521
  C         1.3295506217       13.0002664638       23.3314643482
  H         0.6715215735       14.1781607415       21.6228450597
  H        -0.0505226857       14.7289616581       22.9364956508
  C         1.7718733790       11.7639477510       22.6483279059
  C         0.8160647839       12.3230336291       24.5641397693
  C         2.5119594938       14.0020221585       23.5379140124
  C         1.5374225107       10.6601073734       23.4055400083
  C         2.2877228138       11.4036280872       21.3884031701
  C         0.9161870966       10.9694033239       24.6695176727
  C         0.3473553383       12.9593266452       25.7267217805
  H         2.7604555514       14.4923628070       22.6084385769
  H         2.1348896800       14.6467758972       24.3419406855
  C         3.7443242070       13.2409734522       24.0614248375
  S         1.6486936050        9.1408224448       22.5665652818
  C         2.2673030646       10.0216268375       21.1585596736
  H         2.5159822195       12.1152650673       20.5745892652
  C         0.4392748825       10.2762516327       25.7310441182
  H         0.2339066997       14.0421492986       25.6827587629
  C        -0.0485487714       12.2699626989       26.8710532458
  H         4.1572730242       12.5051244815       23.3262702487
  H         3.6259415203       12.7835827169       25.0183701197
  C         4.9377452765       14.1379840310       24.3203263259
  C         2.6102445288        9.2951561466       19.8397407422
  C         0.0394479272       10.9347907315       26.9082816859
  H         0.3652353045        9.1841296366       25.6723458539
  C        -0.5944746754       12.5691889798       28.1148129688
  H         5.7404326569       13.4988092425       24.5968374298
  H         4.6937496414       14.7627835349       25.1358603365
  C         5.4806926747       14.9052852390       23.1308114772
  C         2.4240595904        7.9171946676       19.5589449003
  C         3.1343173620       10.0931266833       18.7058863905
  C        -0.4130532033       10.1435360484       28.1121676894
  C        -0.8141714886       11.4443633887       28.8673728244
  S        -0.9381999991       14.0897714679       28.8854668162
  H         6.1164786336       15.6955916799       23.5427126339
  H         4.6305337103       15.3270369019       22.6050661821
  C         6.3002762891       14.0021412269       22.1611681974
  N         2.1387433790        6.9450071975       20.5114307802
  C         2.6012767931        7.4003630246       18.2962129023
  C         3.5134670049        9.5742810955       17.4963749032
  H         3.4766380847       11.1239814851       18.9590173058
  C         0.7761998664        9.5191220999       28.9149675720
  C        -1.6461615688        9.2225196384       27.8589134153
  C        -1.2680735477       11.8487608912       30.1749627455
  C        -1.3021501855       13.2076646524       30.3046953533
  H         7.2072211064       14.5156546947       22.0147035450
  H         6.6271848310       12.9786679201       22.6331922627
  C         5.5913581081       13.9295809970       20.7752538291
  S         2.2243772468        5.5005487199       19.7874949457
  N         2.4145093453        5.9948985455       18.2759788055
  C         3.1672490876        8.1731783896       17.2440659027
  H         3.8945061400       10.1207695274       16.6749000609
  H         1.1855512171        8.6208790953       28.3645644501
  H         0.4085999354        9.0133356778       29.8839235873
  C         1.8559539858       10.5099196116       29.3912172464
  H        -1.4292584886        8.5640900624       27.0763100233
  H        -1.8693662099        8.7058570487       28.7883885255
  C        -2.8697448673        9.9967487550       27.5275506784
  H        -1.3524839410       11.1623427488       30.9475156946
  C        -1.6762629141       13.9612320513       31.5952676271
  H         5.6551519981       14.8486524810       20.1943855300
  H         4.4835085014       13.7790722343       20.9204095352
  C         6.0065155316       12.7684846614       19.8994631767
  C         3.3330060560        7.4921769957       15.9861252472
  H         2.1584065796       11.1525870170       28.5941134244
  H         1.3818202594       11.1350779885       30.1083002357
  C         2.9586163920        9.6726826159       30.0780179612
  H        -2.6211937758       10.7907539475       26.8362293035
  H        -3.1588842135       10.6014133632       28.3740782965
  C        -4.1288805757        9.2749497698       27.1369232273
  C        -1.6337453193       15.3748653896       31.7692212735
  C        -2.0843779737       13.2511689576       32.7746451803
  H         6.0631479224       11.8664497632       20.4766089638
  H         5.2429766508       12.6273898475       19.1076009587
  C         7.3505011381       13.0873804907       19.3142662163
  H         3.0244592933        6.4417638740       16.0456315379
  C         3.6118534146        7.9732559093       14.7067570984
  H         3.3652558649        9.0309644470       29.1978057082
  H         2.5600016508        8.9504746981       30.7943141849
  C         4.1463457950       10.3976663156       30.6194644555
  H        -3.8646310284        8.4321972065       26.5844284411
  H        -4.4923332535        8.8832505140       28.0486157442
  C        -5.1431692085       10.2297771556       26.3979094021
  N        -1.5188451667       16.3800419852       30.7495714476
  C        -1.7225831874       16.0026265930       33.0452818303
  C        -2.0871906663       13.7568026551       34.0485372274
  H        -2.3006069780       12.2183606029       32.6328006510
  H         7.4367377940       14.0702764782       18.9793469930
  H         8.0259383017       13.0431427157       20.1931706189
  H         7.6845947556       12.3485620383       18.6061786589
  S         4.0597140854        9.5681269208       14.1774458343
  C         3.5574228416        6.9392800468       13.6339493911
  H         4.1789249351       11.3347344325       30.0786926969
  H         3.8805155147       10.6627159394       31.6460006370
  C         5.6086695008        9.8938553238       30.5050098262
  H        -4.6263053219       10.6773909950       25.5460601442
  H        -5.4685723834       11.0117991099       27.0329148639
  C        -6.4358873186        9.5792308158       25.9240806245
  S        -1.5925698745       17.8350916276       31.4371872145
  N        -1.8183262254       17.3769587676       33.0078057997
  C        -1.9870421500       15.2356081832       34.1659877181
  H        -2.3828557330       13.1232452357       34.8490386322
  C         4.1168607959        8.8829395437       12.5560722376
  N         3.8982747945        7.5460415300       12.4708992868
  O         3.2902328459        5.6753781534       13.7319048448
  H         6.3681823002       10.7233731391       30.6931229055
  H         5.8019138912        9.7421726691       29.4422627943
  C         5.9313614647        8.6293118977       31.2856549457
  H        -6.1662150795        8.7669408717       25.2489485336
  H        -6.7999653007        8.9713518900       26.7427467039
  C        -7.4899094295       10.5815209782       25.4102016768
  C        -2.2849646914       15.9012753587       35.3574899834
  S         4.6226726506        9.8691152953       11.2426182826
  C         3.8600822183        6.8370246769       11.2035215921
  H         6.3016811427        8.9382801673       32.2077536116
  H         5.0169636292        8.0396477852       31.4209284262
  C         7.0305246717        7.7777221063       30.5473746247
  H        -7.2787727022       10.9915475708       24.4256522223
  H        -7.6585017895       11.4500371973       26.0076862206
  C        -8.8222838212        9.9470191762       25.1323867828
  H        -1.9806987353       16.9576157427       35.3910144304
  C        -2.8562588408       15.5187341623       36.5353294366
  H         4.3153944924        7.4631291726       10.4456596668
  H         4.4259207496        5.8276773647       11.2565555397
  C         2.3738993111        6.4941706515       10.8565555234
  H         7.6684608897        7.3794202481       31.4124347632
  H         7.6826285465        8.3423087216       29.8599976523
  C         6.5366899409        6.5877840382       29.7287905733
  H        -9.2874887965       10.2183437869       24.2210619290
  H        -8.6250393519        8.8457623001       25.0679515706
  C        -9.7777883718       10.0905068820       26.2954469882
  S        -3.5647702148       13.9923128742       36.9779979824
  C        -3.0789298710       16.5818313139       37.5416178668
  H         1.7267093431        7.3818262599       10.9309613470
  H         2.2541634766        6.1047199383        9.8200304433
  H         1.9273318687        5.7828721853       11.5886151351
  H         7.2888543534        6.1565746492       29.0854278218
  H         5.6799137257        6.9092871044       29.1593055582
  H         6.1497343208        5.8565732499       30.4387807018
  H       -10.4261748223       10.9950626791       26.2729202845
  H        -9.2671584117       10.0858082000       27.2977437442
  H       -10.5043885970        9.2962580193       26.3980715452
  C        -4.1627398870       14.8106786522       38.4281463106
  N        -3.7861254457       16.1102504964       38.5810553630
  O        -2.5431556126       17.6484160620       37.5035190505
  S        -5.0322397602       14.0111502702       39.6846806860
  C        -4.0306022266       16.9422231231       39.7869751292
  H        -4.2265936097       17.9165097923       39.3767125506
  H        -4.9068183757       16.6190604038       40.3091440290
  C        -2.8039913784       16.9008550958       40.7402138871
  H        -1.9884010340       16.3797602451       40.2932180056
  H        -2.4576543579       17.8516558407       41.0465621613
  H        -3.1770788329       16.3631600182       41.6178345764
  H         7.4203964290       11.1427315950        3.0278318979
  C         7.9323423789       10.1987605684        3.1537023894
  H         7.2520581430        9.3992469491        3.2708181700
  C         8.7162544005       10.3440133009        4.4498232012
  C         8.7987904445        9.8488891911        1.9179051305
  C         7.7494051814       10.4907863004        5.6011777720
  H         9.3494127116        9.4692157993        4.5377948242
  H         9.3023531663       11.2362577326        4.5560710255
  H         9.2066137125       10.6173046571        1.2802073676
  H         8.1077334009        9.1922103271        1.3240159332
  H         9.6721009040        9.2434014338        2.2845511470
  C         7.3370176313        9.0980306918        6.1445129976
  H         8.1368290004       11.0516043419        6.4311530257
  H         6.8739319145       11.0073086520        5.1674638883
  C         6.4717053935        9.2214590005        7.4257521086
  H         8.1901366187        8.4997746340        6.2739962619
  H         6.7025496579        8.5797761922        5.3870089058
  C         5.2633504394       10.0639578082        7.4683821020
  H         7.1371750824        9.6321920761        8.1353377464
  H         6.1920208831        8.1809090573        7.7039153133
  C         4.0673634542        9.5210063023        6.6880379100
  H         4.9563081668       10.3017203671        8.4859595057
  H         5.5523296123       10.9952785604        7.0565369146
  C         2.7793326493       10.4568103714        6.5829112814
  H         3.8460767464        8.5530386275        7.0938572855
  H         4.3024014953        9.4008980565        5.6698086905
  C         3.1930085801       11.8612248360        6.0403289949
  C         2.2963295403       11.1104102203        7.8869565349
  C         1.6203351292        9.8259539633        5.7646530119
  C         2.9400815187       12.9220782738        6.8834550444
  C         3.8688545891       12.2844816115        4.8998828403
  C         2.3450199602       12.4509249759        8.0568262802
  C         1.8416656227       10.4412912447        9.0465684218
  H         1.9027652050        9.7712472499        4.7302586556
  H         1.3992170469        8.8507448824        6.1999881758
  C         0.3717429908       10.6887771740        5.8386638882
  S         3.4040872419       14.3987607906        6.2778268337
  C         4.0169428118       13.6434637525        4.8273605252
  H         4.1611569621       11.5407105662        4.1472812305
  C         1.9312449295       13.0646556890        9.2221446716
  H         1.9987076022        9.3535587292        8.9954431931
  C         1.3832832481       11.0928262007       10.1896737007
  H         0.5714346542       11.7366009069        5.8104983852
  H        -0.0984016814       10.5997002006        6.8472421846
  C        -0.7807674610       10.3244262614        4.8616797217
  C         4.5066485258       14.4258513078        3.6379893101
  C         1.4706955736       12.4536923854       10.3210096075
  H         2.0832536838       14.1196524156        9.2619420737
  C         0.9241134434       10.7347510403       11.4814769756
  H        -1.5307709895       11.0597066259        5.1638634858
  H        -1.1165420048        9.2644874511        5.0696766810
  C        -0.6734624097       10.7885866944        3.4205091831
  C         4.4651526914       15.8012117818        3.4493318124
  C         4.8869422824       13.5502577392        2.4474977024
  C         1.0453004725       13.1725864695       11.6132844994
  C         0.8814072962       11.8632253922       12.3150889277
  S         0.5829806882        9.2345617376       12.2907541186
  H         0.1878710098       11.4256147332        3.3622780376
  H        -1.5276254405       11.4092953633        3.1626955923
  C        -0.3953975215        9.6150104240        2.4590238484
  N         4.0926398537       16.7311806057        4.4487166462
  C         4.6422977533       16.3692330726        2.2273813093
  C         5.1711767509       14.1818746878        1.2569660640
  H         5.0617014380       12.4699797519        2.4973316687
  C        -0.3474045822       13.8505591042       11.6676828308
  C         2.1563423697       14.0422636084       12.2483637478
  C         0.4542840091       11.4822452558       13.6135164320
  C         0.2942851277       10.1517913210       13.7665926825
  H         0.5312526686        9.0584676947        2.6924601838
  H        -1.1599410324        8.8571933434        2.4991370730
  C        -0.2395236022       10.1150778084        1.0235931561
  S         3.9751129256       18.1858288343        3.7018638270
  N         4.4099656732       17.7149771774        2.1944973148
  C         5.0662645621       15.6585174491        1.0767355846
  H         5.4248852524       13.6222414058        0.3393274940
  H        -0.2742093335       14.8442602844       11.2226732236
  H        -0.5727270138       14.0655695356       12.6921406553
  C        -1.4551885835       12.9762663659       10.9627478384
  H         2.5923423960       14.7630503377       11.4788393314
  H         1.7013953896       14.6882943235       13.0081256420
  C         3.3845582358       13.3217070186       12.8815816963
  H         0.4705460719       12.2513876440       14.3549094993
  C         0.1264707701        9.4753987744       15.1340007153
  H         0.5821882581        9.5817598370        0.4872568635
  H         0.0979221526       11.1689167985        0.9362979074
  C        -1.6233507343       10.0958766037        0.3151922582
  C         5.2670154553       16.4487255295       -0.0740197340
  H        -1.0333662310       12.5960686913       10.0604524119
  H        -1.7777176359       12.2352750182       11.6735377019
  C        -2.5775194628       13.8040195254       10.4148692123
  H         3.6460226887       12.6258965224       12.0571665138
  H         3.0012956766       12.7672831871       13.7410312249
  C         4.4607556399       14.2458903752       13.2727689179
  C         0.1135228778        8.0728734341       15.3831945328
  C         0.0911114276       10.3147015901       16.3157273383
  H        -2.0705930004        9.1638358261        0.7164606362
  H        -2.2768571300       10.9506102424        0.6317171058
  C        -1.4800846273       10.3006436637       -1.1681441204
  H         5.1205010803       17.5374838038        0.0225974866
  C         5.6661415520       16.1925505041       -1.4020272908
  H        -2.9025483845       13.3307826529        9.4001734024
  H        -2.3811614531       14.8676919777       10.1478196631
  C        -3.9130579884       13.6917860024       11.2226162852
  H         4.9456941710       14.4862668218       12.3326419037
  H         4.1052608966       15.1884834839       13.7054587708
  C         5.5198922243       13.5523569881       14.0878501063
  N         0.3556356458        7.1221165836       14.3718397526
  C        -0.2435481462        7.5086644803       16.5449724854
  C        -0.1625015440        9.6899325348       17.5583520444
  H         0.2656088693       11.3798348785       16.2996980814
  H        -0.4664863652       10.3831099202       -1.4936714459
  H        -2.0821127610       11.1972409770       -1.4552680202
  H        -1.9422299866        9.5118215666       -1.7375055520
  S         5.8145191660       14.6644304059       -2.0833077486
  C         5.8588342070       17.3774053185       -2.3018300710
  H        -4.0329809010       12.6093070491       11.4070209626
  H        -3.8397841838       14.2015706509       12.1793285665
  C        -5.0582837870       14.2782050802       10.4636515290
  H         6.1901383467       12.9790928267       13.3013505323
  H         5.1392989739       12.7604958028       14.7110973765
  C         6.3285158059       14.6138079828       14.9129045597
  S         0.0531400384        5.5643789834       14.9889456303
  N        -0.3057168348        6.0898071370       16.5155670650
  C        -0.3927731652        8.2580003250       17.7392721465
  H        -0.1696302521       10.3127901366       18.4547718178
  C         6.0755265921       15.5786172524       -3.5724442554
  N         6.1152727231       16.8790625340       -3.5504937631
  O         5.7974450000       18.5734689595       -1.9617515210
  H        -5.7519341848       14.7753477113       11.1224763570
  H        -4.5957647060       15.0587640888        9.8639691372
  C        -5.7300031158       13.2160748203        9.5670821288
  H         5.7523246365       15.5300399961       14.9950819124
  H         6.6073887892       14.2381000589       15.8471547199
  C         7.6299443707       14.8649392566       14.2333200705
  C        -0.6629729141        7.5471085126       18.9605028221
  S         6.1884603174       14.8961292404       -5.2208764946
  C         6.0424607190       17.6742958219       -4.7164837389
  H        -5.1008022487       13.0453046282        8.6610253820
  H        -5.9137608810       12.2184505156       10.0630643628
  C        -7.0530269093       13.7084935802        8.9398226174
  H         7.4564417770       15.3083014380       13.2898796193
  H         8.2570737914       13.9912695465       14.0595508470
  C         8.3602474215       15.7740412702       15.1709170989
  H        -0.2700379415        6.5288535464       18.9428073796
  C        -1.2180080217        7.9731674954       20.1268698943
  H         6.5386652457       17.3419314672       -5.6593075994
  H         6.4204510477       18.6783058601       -4.4903231476
  C         4.5670037029       17.8675804923       -5.0387502907
  H        -7.4398368713       13.0426218543        8.1320288086
  H        -6.9481271979       14.6785115389        8.4792004702
  C        -8.0949888822       13.9846897584        9.9268213957
  H         8.3937147890       15.3562917093       16.1653246103
  H         9.3442647584       15.7403392810       14.8591964910
  C         7.8184031783       17.1591456881       15.1240243328
  S        -1.6576090806        9.5264497700       20.5704919449
  C        -1.3464336762        6.9073894074       21.1634947192
  H         4.3426033242       18.7782506645       -4.4380973908
  H         4.0272350427       17.0135035729       -4.6907971956
  H         4.4317586309       18.0838017147       -6.0866528752
  H        -7.7959958649       14.6148033743       10.7262097455
  H        -9.0036102445       14.2752652997        9.5486331111
  H        -8.2666080946       13.0084317805       10.3424269190
  H         8.6127785475       17.6815303705       14.6888802345
  H         6.9708218348       17.2018224020       14.4567332450
  H         7.6108460670       17.6308830594       16.0824416646
  C        -2.1199021926        8.7840716285       22.1397419249
  N        -1.9517120823        7.4343832928       22.2587292681
  O        -0.9869830018        5.7553062299       20.9657248026
  S        -2.6046457465        9.6776275069       23.6264827353
  C        -2.1112270951        6.6576465504       23.4230236120
  H        -2.5931147511        5.7130177394       23.1754846701
  H        -2.8931507749        6.9525703457       24.1456515269
  C        -0.7372138106        6.4756506436       23.9974722461
  H        -0.4940533998        5.4437452317       23.6193600477
  H        -0.8194192587        6.5571081119       25.0728375101
  H        -0.0328889643        7.1955000129       23.6631788395
