352
i =
  H        -3.4610483380       12.4819241773       16.4217309954
  C        -2.4926370794       12.4834286797       16.0339865369
  H        -2.0350233127       11.4607617490       16.0965208307
  C        -1.6339264394       13.3809029422       16.8428419621
  C        -2.4393280215       12.9241006442       14.5141413729
  C        -2.1305842141       13.7422891757       18.2464126918
  H        -0.5674257122       12.9989147425       16.9217087974
  H        -1.6450909926       14.3836790786       16.2678622466
  H        -1.4452919649       12.5859688282       14.1300145920
  H        -3.2609924370       12.4294578307       13.9911888440
  H        -2.5425110002       14.0323290220       14.4184653358
  C        -2.0841806390       12.6809851394       19.3774541956
  H        -3.1967696936       14.0497846192       18.1226439901
  H        -1.6181000055       14.5869951274       18.6465298274
  C        -2.4141523446       13.1828310036       20.8093222174
  H        -2.7187615035       11.8041166577       19.1810689399
  H        -1.0776236652       12.1897084150       19.3607757916
  C        -1.4469810103       12.5333122376       21.8080649736
  H        -3.3908996822       12.6721080601       20.9856101130
  H        -2.6179069302       14.2920161595       20.8677749951
  C        -0.2767166224       13.4123406212       22.3477067945
  H        -2.0460768298       12.1672331707       22.6531748017
  H        -1.0152594681       11.7024824260       21.3068538614
  C         0.9741798400       12.7067463401       22.8942479912
  H        -0.0690218491       14.1089980626       21.5652866699
  H        -0.6823803967       14.0249706250       23.1726199330
  C         1.3752075655       11.3581004836       22.2678023209
  C         0.6714903959       11.9757304562       24.2015875453
  C         2.2549185542       13.6060844216       23.0486444615
  C         1.2446778723       10.2037790532       23.0591139058
  C         1.8980686492       10.9617025916       20.9847222600
  C         0.7538727051       10.6123172464       24.2994478851
  C         0.3614709092       12.6322284081       25.4211509364
  H         2.5732770067       13.8177845346       22.0639285545
  H         1.8924021674       14.5162740832       23.4479526782
  C         3.4953488258       13.0478054097       23.6910055189
  S         1.7464381870        8.7206399893       22.3245598309
  C         2.1533856856        9.6023294078       20.8990154653
  H         1.9913620497       11.6335433803       20.1437122852
  C         0.5305106898       10.0628603114       25.5253922878
  H         0.5693585544       13.7080576600       25.4721102457
  C         0.0366221919       12.0675629420       26.5587314825
  H         3.9610114644       12.3626918850       22.9481511267
  H         3.3029601947       12.5537333939       24.6237713358
  C         4.5225476462       14.1959594488       24.0253448290
  C         2.6724430981        8.9229995439       19.6700828703
  C         0.0466944152       10.7362991753       26.6693114047
  H         0.4598632058        9.0310887586       25.6209663454
  C        -0.3826831805       12.5292615704       27.7956097758
  H         5.3076386860       13.9504813715       24.6804700304
  H         4.0898507005       14.8847804188       24.7168060890
  C         5.0892531902       14.9530436697       22.8270326811
  C         2.7042002624        7.5482549870       19.3705635421
  C         3.3065473467        9.7853754146       18.6227631497
  C        -0.2563787995       10.1291167128       28.0189933050
  C        -0.5005508869       11.5145903425       28.6510074834
  S        -0.7708115356       14.0801087435       28.2907673225
  H         5.3692055206       15.9435193099       23.0503256625
  H         4.4218306801       15.1758271209       22.0494333007
  C         6.3558110668       14.2550883730       22.3406148610
  N         2.1914972505        6.6006223910       20.2540338872
  C         3.1458874941        6.9984406942       18.2419053422
  C         3.5160579787        9.2632059349       17.3655568162
  H         3.5674942135       10.7415165544       18.8743560478
  C         0.8019477173        9.3661527600       28.7720452561
  C        -1.6326674920        9.3726700711       28.0391429686
  C        -0.8572920661       12.0635966153       29.9311048367
  C        -1.0634640044       13.4662497119       29.8637505060
  H         7.2420649990       14.8720822284       22.5691961203
  H         6.4021307119       13.2108458108       22.7459674525
  C         6.3918172738       14.0874973314       20.8162898882
  S         2.3266617714        5.1056905539       19.6187937026
  N         2.9335405089        5.5998275678       18.1215397940
  C         3.4328038892        7.7941198299       17.0966787113
  H         3.7888768884        9.9072238334       16.5938307699
  H         1.3086576302        8.6449535183       28.1125369443
  H         0.3211203790        8.8104290742       29.5056618631
  C         1.9368419069       10.1414750835       29.3733931658
  H        -1.5138030985        8.3760519780       27.5668911676
  H        -1.8545169398        9.0880227650       29.1027115287
  C        -2.7615052303       10.2131969863       27.5814171088
  H        -0.8866420613       11.3720764421       30.6917661980
  C        -1.4111683658       14.2920062965       31.0623365777
  H         6.2836134438       15.0735333172       20.3618258951
  H         5.5470810329       13.5467273055       20.3617282447
  C         7.7316037468       13.5452268438       20.3485624377
  C         3.4301202277        7.0939685539       15.8071672952
  H         2.3174545652       10.9597617503       28.7264643644
  H         1.5418942779       10.7209745195       30.1963004916
  C         3.2186111819        9.3939612852       29.8292795481
  H        -2.5815311041       10.5517900455       26.6290814672
  H        -2.8954016227       11.1030199687       28.2163901221
  C        -3.9592114109        9.3171141190       27.6888030039
  C        -1.5003622233       15.7292312885       31.0874769682
  C        -1.6298349031       13.6424248138       32.3738598626
  H         8.5012040883       13.6615054889       21.1340928143
  H         7.6593368321       12.4668823188       20.2733539511
  C         8.2551325060       14.0230983435       18.9954912072
  H         3.0982206884        6.1236555375       15.7227931138
  C         3.8047356070        7.5362851852       14.5704280256
  H         3.5250991637        8.5460127820       29.1374460008
  H         3.0463154971        8.9209120932       30.7924989525
  C         4.4033082541       10.2851423653       29.9636668126
  H        -3.8538010518        8.5416238289       26.9921697541
  H        -3.9788123113        8.9273983317       28.6725671381
  C        -5.2504075356       10.0248119907       27.4442769933
  N        -1.1687873790       16.5460889898       29.9974770513
  C        -1.8778903603       16.4600895249       32.1863140399
  C        -1.8394781433       14.3600068164       33.5160132254
  H        -1.7106031915       12.5836224060       32.4162321746
  H         7.4313594622       14.5924574329       18.4415131669
  H         9.1949004589       14.5341852637       19.0237605302
  H         8.5387898332       13.2062224331       18.3936728587
  S         4.0008769436        9.1525149334       14.1992801641
  C         3.7398648916        6.5765740286       13.4333680098
  H         4.5152518794       10.8327131179       29.0031572914
  H         4.3407606988       10.9253872940       30.8029178905
  C         5.7528414833        9.5371966712       30.2015056886
  H        -4.9231140341       10.9686983622       26.8941725470
  H        -5.7502432861       10.4084244177       28.3584969851
  C        -6.3012084740        9.2810276749       26.6414810802
  S        -1.3399234423       18.1396645243       30.4327118937
  N        -1.8608460299       17.8473242181       31.9015748451
  C        -2.0191836154       15.8470655625       33.4336494341
  H        -2.1258628689       13.8495383526       34.3581094611
  C         4.1868988936        8.6334952506       12.5056433101
  N         3.9766336200        7.2798924545       12.3009626181
  O         3.4936733378        5.3963025854       13.5068803856
  H         6.4271938886       10.3714414569       30.4722885961
  H         6.2213442494        9.1272738828       29.2881784026
  C         5.7321635624        8.5487001788       31.3728588580
  H        -5.8824922939        8.6939972097       25.8296184730
  H        -6.8499831118        8.5062396651       27.2717390222
  C        -7.2241677681       10.2523731495       25.9352042880
  C        -2.4140211717       16.6289111639       34.5675995506
  S         4.6649606772        9.7127224185       11.2669964405
  C         3.8649667346        6.5885243002       10.9894132086
  H         6.6910145708        8.7055383110       31.9041787339
  H         4.9960466254        8.9790166020       32.0563598162
  C         5.5146330680        7.0198884899       30.8899675088
  H        -6.6901341795       10.8263011638       25.1315914840
  H        -7.6288936886       11.0147951390       26.6485579537
  C        -8.4148067134        9.6496957922       25.2158810670
  H        -2.3000619907       17.6839480237       34.3486590454
  C        -2.9206523054       16.3995610478       35.8218537507
  H         4.5587061668        7.0592656979       10.2319172779
  H         4.2582114984        5.5847187500       10.9824078523
  C         2.4200065812        6.5821897142       10.4727415440
  H         5.0813697973        6.9104150691       29.9164803723
  H         4.7385072170        6.6248270259       31.5212753698
  C         6.7490729417        6.0956814458       30.9006274525
  H        -8.6321065812       10.2228991533       24.2713952025
  H        -8.2275176720        8.6695824267       24.8275536434
  C        -9.6871947591        9.7409112203       25.9740144849
  S        -3.3143513632       14.8388844130       36.5660555211
  C        -3.1085766089       17.5158117449       36.7424871050
  H         2.4275192777        5.8268295525        9.6930234270
  H         1.6625907358        6.2593353025       11.1818197750
  H         2.1191093447        7.4726940672        9.9573265134
  H         7.3614526353        6.3621256068       31.6931012993
  H         7.3742256222        6.2132985957       29.9774733092
  H         6.4235855140        5.0098952466       31.0089655998
  H       -10.0224652999       10.7985048201       26.1223608041
  H        -9.5940974086        9.1358230694       26.9124772132
  H       -10.4486297125        9.2620934755       25.4139664729
  C        -3.5365111481       15.7661783086       38.1223461806
  N        -3.4571649482       17.0985171089       38.0264972479
  O        -2.7306099053       18.6574621231       36.4338255666
  S        -4.0420974541       15.0602342575       39.7483576212
  C        -3.6381317534       18.0193055737       39.1088639340
  H        -3.9463003730       19.0204506524       38.6390482637
  H        -4.4164908315       17.8160650732       39.7951533975
  C        -2.3646417875       18.1323542757       39.9332507265
  H        -2.4212273769       18.9990041789       40.6075981786
  H        -2.2337782705       17.1830042505       40.4631050314
  H        -1.5304642731       18.3735054786       39.3073273498
  H         7.5451466690       11.0478158979        3.4343801605
  C         8.0694889511       10.1226717970        3.5522299623
  H         7.3678541475        9.2680556698        3.4679376333
  C         8.7593096219        9.9833376846        4.9273957971
  C         9.0836491967       10.0154241274        2.3914697969
  C         7.8527944208       10.1975950448        6.1009736184
  H         9.1786028584        8.9868930018        4.9866545547
  H         9.5905910217       10.6849531931        5.0008387954
  H         9.1327080434        8.9259480378        2.0174187256
  H        10.0909938086       10.2164307191        2.6989021777
  H         8.7640052724       10.7241547015        1.5761917816
  C         6.8988117714        8.9276958885        6.3759563124
  H         8.4585140771       10.5072809143        6.9711149276
  H         7.1419596537       11.0418594152        5.8528550466
  C         6.1723088650        8.9989267993        7.7042374165
  H         7.3517604353        8.0355548160        6.1965934359
  H         6.2163088541        8.8222081307        5.4653587274
  C         4.9736642582        9.9258586169        7.6528268337
  H         6.8945853021        9.4285507330        8.4481521371
  H         6.0431612874        7.9759157494        7.9606488793
  C         3.6988500948        9.3281129432        7.0458208005
  H         4.7486672723       10.2697038974        8.6631816094
  H         5.3671220059       10.7740878942        7.1484900950
  C         2.5912302828       10.3419259342        6.8588477557
  H         3.3324317268        8.4011730516        7.4121691214
  H         3.9458595630        9.0256137172        6.0786028848
  C         3.0833684125       11.6722337188        6.2539283151
  C         2.2915501706       11.0283440473        8.1706644018
  C         1.3851939537        9.8076347325        6.0687334107
  C         2.9539161444       12.7980880452        7.0768868055
  C         3.4618846547       12.1434424279        4.9885201028
  C         2.4915198745       12.3707585654        8.3289528109
  C         1.7952359815       10.3676354060        9.3065050563
  H         1.8144314496        9.3835093588        5.1432919010
  H         0.9333814628        9.0178755986        6.6563479563
  C         0.3555156898       10.7963044048        5.6687900223
  S         3.6291143091       14.2973074245        6.4349853280
  C         3.7654314708       13.4563987115        4.9638729154
  H         3.5295541222       11.4802476512        4.1528972248
  C         2.1909324902       12.9811688640        9.5270800929
  H         1.6731474415        9.3124647527        9.1720272549
  C         1.6636586862       10.9501388411       10.5120183247
  H         0.7480538613       11.6332443451        5.0764614055
  H        -0.0180198021       11.2250979662        6.5451526519
  C        -0.8328772828       10.1534668127        4.9511224250
  C         4.3466664809       14.1064455422        3.7809098816
  C         1.8417613230       12.2779602888       10.6739461439
  H         2.3757885773       14.0080867626        9.4820971416
  C         1.2996994082       10.4990181008       11.7994848309
  H        -1.4641937741       10.9442611072        4.5807284499
  H        -1.5189474964        9.5338218799        5.4600722595
  C        -0.3360159465        9.4052575618        3.7044968519
  C         4.4522595141       15.5058165573        3.6246098839
  C         4.8169174153       13.2930361804        2.5689703999
  C         1.5846598666       12.9164947421       12.0223130999
  C         1.2724996284       11.5399759829       12.6583101672
  S         0.8262387147        9.0257806132       12.4816435033
  H         0.1162018396        8.4877924036        3.9620024950
  H         0.4728305446        9.8769508579        3.1411917136
  C        -1.5146055630        9.2706092604        2.7822181543
  N         4.2213076420       16.4444933064        4.6105416284
  C         4.7957707801       16.1347423767        2.4248946313
  C         5.2948833865       13.9675788849        1.4255459332
  H         4.8643463298       12.2571551551        2.5135229312
  C         0.3484963127       13.8130594957       11.8391097433
  C         2.9179519323       13.4782855954       12.4129875158
  C         1.0166555091       11.1830313010       13.9573020505
  C         0.7345663511        9.8521601942       14.0191637847
  H        -2.0676421988        8.4207028248        3.1510144072
  H        -2.2525966555       10.0664701864        2.8318572183
  C        -1.2314410456        8.8916244197        1.3216072797
  S         4.3015508494       17.9560715595        3.9579668301
  N         4.7778537889       17.5308041926        2.4715475149
  C         5.2500434542       15.4167401566        1.2839815530
  H         5.5558752536       13.2860766813        0.6100315700
  H         0.5635847798       14.6856198105       11.2372428670
  H         0.0939055123       14.1397081394       12.8732827309
  C        -0.9526188107       13.0644437034       11.2852534558
  H         3.7191685679       12.8717536497       12.0821836225
  H         3.0317079398       14.4593155974       11.9331213685
  C         3.0862184861       13.7100575058       13.9572483418
  H         0.8862552450       11.9731756351       14.7616832908
  C         0.4100172121        9.0977457316       15.2987005869
  H        -2.2086868219        8.6897518290        0.8376539885
  H        -0.4560959933        8.0966618390        1.1747826010
  C        -0.7620807016       10.2006138776        0.6171497113
  C         5.6017398477       16.0895158432        0.0540458753
  H        -0.6551678007       12.7522686082       10.3099922798
  H        -1.2148153284       12.2369862395       11.9215402058
  C        -2.2084825777       13.9318257563       10.9946621129
  H         2.9394749548       12.7810446387       14.5157878086
  H         2.3152578104       14.3720138624       14.3369613439
  C         4.4506047847       14.2355543110       14.4125427461
  C         0.2471464268        7.7039853863       15.3360104968
  C         0.1552887680        9.7886936843       16.6142285102
  H        -1.5890741558       10.8013163017        0.5429707312
  H        -0.1887994140       10.7803435963        1.2932073916
  C        -0.0597748716        9.8919475763       -0.7083291668
  H         5.7225868704       17.1168050951        0.2274974494
  C         5.8322947804       15.6980447628       -1.2722822674
  H        -2.0300193652       14.6058461472       10.1821430783
  H        -2.4011599334       14.5721705324       11.8117281930
  C        -3.4542493409       13.0452293696       10.7336598846
  H         4.7501651341       15.1674001987       13.9101883786
  H         4.3809411342       14.6794142218       15.4017043482
  C         5.5440736085       13.1889030434       14.2642095975
  N         0.3772211847        6.8304821562       14.2631143351
  C        -0.0655744933        7.0707144551       16.5332912353
  C        -0.2545601887        9.2021571359       17.7825594229
  H         0.2500942740       10.8617893537       16.4378659898
  H         0.4268202223       10.8132453059       -1.0413986441
  H        -0.7668118837        9.4724771750       -1.3855250942
  H         0.8305420139        9.2712502480       -0.6251153181
  S         5.6949515882       14.1477882963       -1.8022338685
  C         6.1185553096       16.7158461612       -2.3026722339
  H        -3.0904889921       12.1612211426       10.1665699640
  H        -3.9857931799       12.7222710716       11.6263275431
  C        -4.5385192763       13.7483057325        9.8921150707
  H         5.3577959743       12.5505684216       13.4004486559
  H         5.8139701104       12.4898816157       15.0792085982
  C         6.8848220884       13.7903010656       13.9082490681
  S         0.3154851655        5.3152533135       14.8341530648
  N         0.0334604875        5.7058235634       16.3383242875
  C        -0.3260022253        7.7593407320       17.7811260199
  H        -0.5526503535        9.8458959104       18.5379506334
  C         5.9202066361       14.8327859961       -3.4005418215
  N         6.1672658083       16.1672722337       -3.4895938499
  O         6.3267473520       17.9039845445       -1.9212315397
  H        -5.1885973246       14.3345443781       10.5744357535
  H        -4.1666891852       14.5332703285        9.2247723573
  C        -5.3145761812       12.7434034145        9.0856319065
  H         7.5709666572       12.9113931138       13.8603149786
  H         6.7816306206       14.3343021799       12.9107947417
  C         7.4297027556       14.8034338431       14.9584005218
  C        -0.7783657976        6.9668911900       18.8719127701
  S         6.2021648787       13.8473448196       -4.8139901562
  C         6.3895139320       16.9935503333       -4.6989434868
  H        -4.8013239346       12.4739630676        8.1711425419
  H        -5.5386287924       11.8106410170        9.5797043181
  C        -6.7067047923       13.3859169870        8.7536351482
  H         7.9692858219       14.3760550566       15.7566757293
  H         6.7312958976       15.3262308488       15.5079580043
  C         8.3741800815       15.7535410847       14.2951314696
  H        -0.4936052749        5.8712477350       18.7766450333
  C        -1.2944639379        7.3098814032       20.1105801168
  H         7.0229584656       16.5912905321       -5.4924048580
  H         6.9542706193       17.9072088271       -4.4222423248
  C         5.1143762954       17.4975255660       -5.3258337974
  H        -7.1551653251       12.7775792594        7.9661539314
  H        -6.6129679197       14.4247529662        8.5639400137
  C        -7.6655707981       13.3342846483        9.9396072269
  H         9.3958692426       15.7925544004       14.7942434341
  H         8.6165887247       15.4869736653       13.2664730856
  C         7.6835254592       17.1530414226       14.0917153542
  S        -1.8933588267        8.8241501867       20.6090389497
  C        -1.4545223097        6.2682963352       21.2037712120
  H         4.6222391724       16.7910876994       -6.0027107025
  H         5.2758426462       18.4024174642       -5.8862532884
  H         4.2213658743       17.7455523321       -4.6800675965
  H        -8.5469989608       14.0078451232        9.6635421124
  H        -7.9750044292       12.3229893022       10.0286063063
  H        -7.3496324582       13.7227853389       10.9532031252
  H         7.9426029219       17.8024401566       14.9280386747
  H         8.1165350242       17.4997402257       13.1524286193
  H         6.6424490760       17.0609617166       13.9553292759
  C        -2.3055581049        8.1213699882       22.1965276051
  N        -1.9123858450        6.8311799264       22.3200327918
  O        -1.1680960886        5.0915585262       20.9977279955
  S        -2.4694265604        8.9916391597       23.7248047157
  C        -2.1071329847        6.0341644581       23.4969351277
  H        -2.4696903506        5.0659311880       23.2476333198
  H        -2.8773832970        6.5178677891       24.1476498167
  C        -0.7740774111        5.9979804519       24.1521457694
  H        -0.6122748735        6.6288128273       24.9602074322
  H         0.0185709633        6.2144292403       23.4069345676
  H        -0.5360199832        5.0245411808       24.5915902193
