352
i =
  H        -3.8017164826       14.6369938201       16.7576764569
  C        -3.2888084554       13.7380927590       16.5011463798
  H        -3.8185972328       12.9009079708       17.0388833275
  C        -1.9774435222       14.0182977651       17.2212467979
  C        -3.2128730860       13.4043375145       15.0432553411
  C        -1.9867301263       14.3636252420       18.7675481703
  H        -1.4188435194       13.1203236058       17.1161198269
  H        -1.5030969027       14.8057565526       16.6827378256
  H        -2.2196722300       13.0043588704       14.8209368129
  H        -3.8579016461       12.6434062938       14.7416555689
  H        -3.3517107559       14.1821072830       14.3958776354
  C        -2.6039357938       13.3098780785       19.7239558415
  H        -2.4331466549       15.3313620720       18.9963603762
  H        -0.9015173323       14.4390615680       18.9878250710
  C        -2.1898384891       13.5392306177       21.1786897614
  H        -3.6192069703       13.3810010570       19.6289790829
  H        -2.3697638945       12.2716108238       19.4723097158
  C        -0.8221923262       12.8649849102       21.3540850372
  H        -2.8805926475       12.9477850494       21.7361383526
  H        -2.2805035879       14.5967415395       21.4846453506
  C         0.1050793354       13.8442323983       22.0943096679
  H        -0.9839021612       11.8956090806       21.9069340372
  H        -0.3334802337       12.5526046937       20.4526368269
  C         1.2093772838       13.1226610433       22.9833575986
  H         0.5415488058       14.4639603998       21.3402626741
  H        -0.5109961722       14.4411948792       22.7600626081
  C         1.5563096065       11.7543352386       22.3310984706
  C         0.7668607111       12.4372834696       24.2444209530
  C         2.4044873691       14.1302646426       23.2491089392
  C         1.3374485951       10.7071393745       23.2115730756
  C         2.0330339488       11.2951110385       21.0989870008
  C         0.8352414875       11.1176735665       24.4232919635
  C         0.2480955657       13.0940286149       25.3640089513
  H         2.5897334673       14.6774738601       22.3244217102
  H         2.0149252622       14.8812706476       23.9876774328
  C         3.7535811615       13.5572777222       23.8015420418
  S         1.9440990963        9.1948847988       22.6655604525
  C         2.3997876456        9.9906226401       21.1810295234
  H         2.1599142178       11.9132205927       20.2661774320
  C         0.5056025626       10.4810970053       25.5570246376
  H         0.1563843354       14.1298597834       25.3885743336
  C         0.0068496523       12.4886826215       26.5680122203
  H         4.2049189921       12.8396785150       23.0698222943
  H         3.5165062091       12.9210519220       24.6306934960
  C         4.8959962843       14.6019482878       24.1423178019
  C         2.9085001277        9.2138889138       19.9753576679
  C         0.0798027857       11.1389649613       26.7577652814
  H         0.4762589478        9.3892576778       25.6036713409
  C        -0.4091319375       12.9285101260       27.7903754222
  H         5.4972016400       14.1384398209       24.9166964420
  H         4.5278556629       15.4300271347       24.7684725695
  C         5.8101951687       15.1596652045       22.9998449972
  C         2.7673850968        7.8362940721       19.7671139725
  C         3.2309040422       10.0279836673       18.8084924828
  C        -0.2970674855       10.5154729790       28.0794909830
  C        -0.6021871097       11.9060925101       28.7128443922
  S        -0.7256806037       14.4685369955       28.4597064447
  H         6.4922185786       15.8302816347       23.4515279506
  H         5.1720573165       15.6567914623       22.3097187479
  C         6.5057195203       14.0607201148       22.1619096401
  N         2.3329293216        6.8783625702       20.6917101690
  C         2.9610892566        7.2066052451       18.5514288481
  C         3.4186747494        9.4268794802       17.5673364404
  H         3.4813051068       10.9973065411       18.9278515705
  C         0.9041221064        9.7305053279       28.8003258431
  C        -1.7016472491        9.7738988776       27.9236636876
  C        -1.0140144402       12.3181520217       29.9501446869
  C        -1.0519879723       13.6907753564       29.9820857133
  H         7.5180037014       14.2766624966       22.3194123038
  H         6.3417802817       13.1303886175       22.7440665631
  C         5.9495908176       14.0562647447       20.7485668578
  S         2.3933079392        5.3782253545       20.1578975959
  N         2.7572510183        5.7705302676       18.5888824982
  C         3.3782670141        7.9153714617       17.4130516747
  H         3.6094853882       10.0391302082       16.6866874601
  H         1.1845456451        8.9328780737       28.0820599217
  H         0.4616730799        9.2013392497       29.6201369420
  C         2.1298644247       10.6191361544       29.0898984641
  H        -1.4214915073        9.0735354436       27.2504142058
  H        -2.0474860482        9.3004759045       28.8212018806
  C        -2.8576198108       10.5502500045       27.2982716196
  H        -1.0722865691       11.5929282506       30.7728624615
  C        -1.3238760882       14.4726929559       31.2480277561
  H         6.0539452862       15.0354401824       20.2824101111
  H         4.8046518987       13.8156552875       20.7838634560
  C         6.6580390329       13.0318869085       19.8045833403
  C         3.5492837464        7.2355268648       16.1390021456
  H         2.5977008368       11.0864646224       28.2191546506
  H         1.8274584034       11.5124583791       29.5837285564
  C         3.1084988022        9.7072729796       29.7680164086
  H        -2.6453899317       10.9524301474       26.2653426041
  H        -3.0133908726       11.5077151389       27.9173615854
  C        -4.1505474178        9.8193882196       27.2858236396
  C        -1.2061836528       15.8486823751       31.4075453482
  C        -1.6066748821       13.7585985938       32.5377829262
  H         7.7369457376       12.8935493193       19.9800131377
  H         6.1760307979       12.0391919896       19.8664986179
  C         6.5939350090       13.4211307932       18.3271509478
  H         3.6997674121        6.2131884759       16.2324908990
  C         3.8621648571        7.7198958658       14.9200123930
  H         3.4736091801        8.8766751478       29.1695562915
  H         2.5518288871        9.2177608627       30.5442786786
  C         4.2282622716       10.4903890439       30.3239601628
  H        -3.9906631651        8.9011286381       26.7302924604
  H        -4.3368967791        9.5180395571       28.3292038053
  C        -5.2019022946       10.7412600745       26.6405700326
  N        -0.8459793016       16.8081422499       30.4258443349
  C        -1.5386344613       16.4575548288       32.6552677119
  C        -1.8043227847       14.3364570045       33.7305428087
  H        -1.6292353161       12.6685482196       32.4248244429
  H         5.5975658909       13.8972687198       18.0548254710
  H         7.2807886145       14.2049276514       18.1022494966
  H         6.8049333457       12.5924818162       17.6482795485
  S         4.2573315083        9.2884563459       14.2749106887
  C         3.8354898250        6.6384069659       13.8780318919
  H         4.1896859851       11.5128295315       29.9691257090
  H         4.1336588905       10.4981099605       31.4587581654
  C         5.6028794239        9.9347106343       30.0353190169
  H        -4.7687824582       11.4442743078       25.9289165802
  H        -5.5617682771       11.2755618511       27.4856082596
  C        -6.4069693134        9.9536384467       25.9881999019
  S        -1.0554930424       18.3096440241       30.9706444248
  N        -1.3698814758       17.8309303799       32.5354732375
  C        -1.8895267866       15.8121868527       33.8187211870
  H        -2.0334708409       13.6714147435       34.5738520017
  C         4.3859110411        8.4923586955       12.7084714387
  N         4.1010383261        7.1748874020       12.6471077535
  O         3.4986131080        5.4356180150       14.0373218855
  H         6.2691719765       10.7373821081       30.3961363432
  H         5.9192160793        9.6583982554       29.0407465019
  C         5.7436464678        8.6374945709       30.9173409349
  H        -6.0693644033        9.2198739171       25.2427517209
  H        -6.8712051402        9.4291222978       26.7680790376
  C        -7.4322645608       10.8115671948       25.2376506149
  C        -2.2764482571       16.5635067432       34.9779281448
  S         4.7458304412        9.2689471381       11.2276607970
  C         3.9607612845        6.3660979692       11.4135745011
  H         6.4256347200        9.0386046703       31.7326624959
  H         4.8641016791        8.2898509586       31.3738398150
  C         6.4998258902        7.4602199268       30.2279621597
  H        -6.9142930829       11.2727254777       24.4027923956
  H        -7.7087426384       11.6447186888       25.7729868604
  C        -8.6140820381        9.8881677317       24.8718481974
  H        -2.3459678920       17.6521021841       34.8931607035
  C        -2.6363268245       16.0992319766       36.2671021283
  H         4.6336603609        6.6703549295       10.6021530819
  H         4.3472817275        5.3380697512       11.5783550638
  C         2.5167358164        6.4444322907       10.7798119756
  H         7.3749116045        7.7786400216       29.6348962808
  H         5.8781569839        6.8960115034       29.5315522946
  C         6.9640695893        6.5069552580       31.3149896000
  H        -9.0402925969       10.2168570330       23.9015892929
  H        -8.2901337530        8.9242004462       24.6759728309
  C        -9.6835077411        9.8884467718       26.0455808258
  S        -2.7370827300       14.4338422234       36.7968584677
  C        -2.9512828280       17.1056260123       37.3281891515
  H         2.5239365413        5.9695126951        9.8054272783
  H         1.7855973383        5.9336172581       11.4449561269
  H         2.2475770721        7.4679229078       10.6214972297
  H         6.1860253670        6.3794684033       32.0258276600
  H         7.7810497238        6.7918224416       31.9610224254
  H         7.0627294711        5.4512243539       30.9586307085
  H       -10.1402100197       10.8719089598       26.1592360406
  H        -9.2435819768        9.5476374497       26.9784216863
  H       -10.5030804776        9.2455644443       25.8762507859
  C        -3.1858544735       15.0491560353       38.3526856423
  N        -3.3538118097       16.4203775383       38.3863260208
  O        -3.0014788380       18.3410335425       37.1583878243
  S        -3.8427409822       13.9575769563       39.6354626312
  C        -3.7807667482       17.1457251170       39.5827638480
  H        -4.2833383392       18.0658356513       39.2958434015
  H        -4.4448713486       16.6287105772       40.1555139890
  C        -2.5049905429       17.4603811764       40.4311172424
  H        -2.7565534298       17.8954944784       41.4033134131
  H        -1.9354520192       16.5734394882       40.6984000170
  H        -1.8440373190       18.0994540995       39.8850051210
  H         7.3393945423       11.0659692212        2.9295850760
  C         8.0751993949       10.3567556117        3.1095908852
  H         7.6562318818        9.3666251639        3.2446608088
  C         8.6956661305       10.7056677151        4.4803225853
  C         9.2028316994       10.3011001149        2.0126428658
  C         7.6375117248       10.7811229778        5.6171126737
  H         9.4246108819        9.8820395541        4.6678524414
  H         9.2365519902       11.6567671283        4.3563182375
  H         8.8106225532       10.4702563803        1.0585496236
  H         9.8112093499        9.4161274438        1.9987753343
  H         9.8496058836       11.1486079654        2.2167518311
  C         6.8009279899        9.4933927137        5.8904780483
  H         8.0876953117       11.1218069131        6.5267679588
  H         6.8907822311       11.5411666583        5.3107958083
  C         6.3870579341        9.3394780925        7.2835225080
  H         7.5612690556        8.6872750251        5.6927901532
  H         5.9236631946        9.4134772177        5.1515545426
  C         5.0979561115       10.0969194114        7.5163955591
  H         7.0970920428        9.8596830365        8.0032583572
  H         6.3221729123        8.4099130294        7.8119337321
  C         3.8270113789        9.3739344168        7.0571035897
  H         4.9484033857       10.0148025667        8.6007025210
  H         5.2424610446       11.1719290932        7.2265652713
  C         2.6962653682       10.4164319401        6.8709362227
  H         3.5148330935        8.6320951968        7.8814795116
  H         3.9504674503        8.7492850273        6.1084425719
  C         3.0462447800       11.7478120465        6.1950119901
  C         2.2977010531       11.0784815866        8.1801805190
  C         1.4258197822        9.7538300323        6.1332933740
  C         2.9240897934       12.8379616213        7.0381859736
  C         3.5799916437       12.0831860746        4.9457757683
  C         2.4792714231       12.4057944796        8.3130334151
  C         1.8700545733       10.4585020255        9.3547796785
  H         1.8698890039        9.3685299587        5.1447530230
  H         0.9337745881        8.9688982003        6.7206716911
  C         0.3072038340       10.7883700219        5.8661525768
  S         3.3502126360       14.3495257962        6.3049193740
  C         3.6906585240       13.4858950248        4.8917013368
  H         3.6722224359       11.3066721229        4.2403485594
  C         2.1317160341       13.0244027973        9.4833577141
  H         1.8578529311        9.3714808433        9.3722166347
  C         1.5382881770       11.0758434249       10.5113605019
  H         0.6716243869       11.7935670277        5.5424375692
  H        -0.1885548839       11.0182181721        6.7647679437
  C        -0.5847838088       10.2183592054        4.7494370192
  C         4.1897677175       14.1749520428        3.6514110219
  C         1.6343037586       12.4027064562       10.6704259131
  H         2.2823285127       14.0341493519        9.6233784857
  C         1.2126717084       10.6993817877       11.7849486502
  H        -1.5091463410       10.7310721552        4.6424983855
  H        -0.8867088668        9.2836123767        5.1375172022
  C         0.0659892998       10.1112584693        3.3092105496
  C         4.1367580006       15.5839396899        3.3618803703
  C         4.5920326658       13.3059171757        2.5172661560
  C         1.3501113884       13.1331067536       11.9564485967
  C         0.9945013048       11.7742123637       12.6463650506
  S         1.0773343061        9.2116020633       12.6442099420
  H         0.6399051162        9.2232674184        3.2588846683
  H         0.6865529779       10.9436771244        3.0093990131
  C        -1.0077165005        9.8225222517        2.2311676312
  N         3.7708415656       16.5838811354        4.2921494983
  C         4.3444908821       16.1882741693        2.1259017367
  C         4.8801077517       13.9410144538        1.2860353669
  H         4.6222596347       12.2243249054        2.5641347231
  C         0.0696705029       14.0610388421       11.6848699261
  C         2.5647950691       13.9280383076       12.5237601662
  C         0.6270635037       11.3954870660       13.9406039069
  C         0.6542562215       10.0442773861       14.1431448530
  H        -1.4751453909        8.8743820309        2.3903048003
  H        -1.8171634782       10.5805469288        2.4507811026
  C        -0.5352626838        9.9731601610        0.7696820382
  S         3.9784464632       18.0587962356        3.6878552226
  N         4.2319962568       17.5850690802        2.1294570820
  C         4.7804955430       15.4255538707        1.0356109789
  H         5.3145839457       13.4178570161        0.4748407939
  H         0.4119572591       14.8818580849       11.0787412696
  H        -0.2371969769       14.5265459567       12.6496928818
  C        -1.2075647779       13.4494792943       11.1138483564
  H         2.9313384332       14.7241332372       11.7949550903
  H         2.1783559029       14.5504891107       13.4192363992
  C         3.8044405690       13.1459897885       13.1044197320
  H         0.4535152186       12.1955168899       14.6937682123
  C         0.4812580262        9.3080429979       15.4665783843
  H        -0.1112001970        9.0629874173        0.4254358936
  H         0.3466211024       10.5675078130        0.7423398676
  C        -1.6167073541       10.4584149911       -0.2205070354
  C         5.0296553702       16.0598761479       -0.2272481180
  H        -1.0269219386       13.0687969090       10.0915528748
  H        -1.4435018498       12.5895574301       11.7750065209
  C        -2.4289262957       14.4046721798       10.9711777995
  H         4.3016677689       12.6173651676       12.2886103271
  H         3.3776106861       12.4672999463       13.7893362683
  C         4.7563400200       13.9743085479       13.8676524270
  C         0.3970807500        7.8859570355       15.6257699080
  C         0.2113956037       10.1252180877       16.6638507337
  H        -2.5644909115       10.3517633135        0.2290245752
  H        -1.6696812549       11.5833776708       -0.2725780140
  C        -1.3952248140        9.7833231746       -1.6455016673
  H         4.7620138849       17.0952180547       -0.1138239787
  C         5.4441961986       15.7212208024       -1.4866481982
  H        -2.1123769563       15.1709802521       10.2654336322
  H        -2.7072278425       14.9733544988       11.9134895213
  C        -3.6328764231       13.5606003134       10.4695716197
  H         4.9345237099       14.7850740011       13.1135238947
  H         4.2181494000       14.4498336144       14.6899749017
  C         6.0383385086       13.2910490740       14.2366680613
  N         0.6707712281        6.9475272359       14.6317422964
  C         0.1010387661        7.2832445322       16.7942394841
  C        -0.0990053762        9.4667488826       17.8816590156
  H         0.3783492154       11.2241259646       16.7123650339
  H        -2.1578742347       10.0106810673       -2.3896785966
  H        -1.3589616154        8.7564511667       -1.4530964870
  H        -0.3919793726        9.9139835749       -2.0725160288
  S         5.7773664100       14.1033952702       -2.0169362012
  C         5.6250537241       16.8077261925       -2.4346001956
  H        -3.3516336840       12.7380109109        9.8134842078
  H        -3.8045232707       13.0142617309       11.4587047754
  C        -4.8442656581       14.3614696036        9.8941733659
  H         6.1880751084       12.5382192883       13.5018507440
  H         5.7760724590       12.8038878691       15.2057588135
  C         7.2308702168       14.3059880539       14.2541502184
  S         0.5089433410        5.4299723903       15.1842282187
  N         0.0680868919        5.8748900864       16.6684814275
  C        -0.1460575719        7.9910200740       17.9556879586
  H        -0.0105358307       10.0215857858       18.7866412566
  C         6.0829046338       14.9438620428       -3.5988592413
  N         5.9978332365       16.2847796145       -3.6070946492
  O         5.5033925960       17.9836644372       -2.2204328311
  H        -5.4639843535       14.6299322911       10.7665215882
  H        -4.4625427288       15.2184386631        9.3455501703
  C        -5.8957907391       13.5658198670        9.1379571405
  H         8.0139886418       13.7688359015       14.7408692830
  H         7.5191645431       14.6526518347       13.2472269354
  C         6.8743932414       15.6046638067       14.9060658878
  C        -0.4030631676        7.3321766873       19.1874266957
  S         6.3910405165       13.9879088587       -5.0962851698
  C         6.2030665049       17.1316433285       -4.7597761062
  H        -5.4674904132       13.2209116362        8.1953457631
  H        -5.9841437948       12.5921229977        9.7018983520
  C        -7.3283840695       14.1383459939        9.2529621645
  H         6.2887706662       15.5586563591       15.8293674864
  H         6.4248828960       16.2305534014       14.1147822726
  C         8.1491982518       16.3144776621       15.2484830698
  H        -0.0851859773        6.2843423041       19.1564432493
  C        -0.8446617844        7.6818346099       20.4131806204
  H         7.0616605473       16.7735528843       -5.2955221609
  H         6.4124685525       18.1326783111       -4.5214381293
  C         4.9967611026       17.2320970073       -5.6144576726
  H        -7.8223278761       14.1230316954        8.3535631138
  H        -7.1556473507       15.1891709432        9.3744723803
  C        -8.1737873166       13.5120346116       10.4173513257
  H         8.3604071841       16.1507363439       16.3042526682
  H         8.9379868400       15.8739726804       14.7003529029
  C         8.0037910843       17.7900511513       14.9821383811
  S        -1.3322665923        9.3099601736       20.8956974195
  C        -0.8630724689        6.8036873461       21.5937036887
  H         5.0427527021       18.0827742200       -6.3121064791
  H         4.0807422089       17.4714351988       -5.0116021430
  H         4.9744665810       16.3000589409       -6.2921454262
  H        -9.1473302150       13.9951171515       10.3134406475
  H        -8.3184210050       12.4247390410       10.3908752061
  H        -7.6566688908       13.6956014813       11.3492084537
  H         8.6195894211       18.3419201459       15.6739746930
  H         8.2855651339       17.9912187528       13.9295067843
  H         7.0105014874       18.1256175001       14.9995990344
  C        -1.7321651692        8.6535116634       22.4734911375
  N        -1.4283372418        7.3488053658       22.6467117519
  O        -0.5402325645        5.6425845455       21.5477867533
  S        -2.6148894097        9.5084707664       23.7760082669
  C        -1.5541940363        6.6366337077       23.9170140743
  H        -1.8572710965        5.6354521600       23.8290716926
  H        -2.3992418456        7.0379121166       24.5133845761
  C        -0.2319055241        6.8278945043       24.7723545964
  H        -0.2742910411        7.4751623469       25.6280257715
  H         0.6454763998        7.1105674292       24.1801408932
  H         0.0592706230        5.8648291236       25.2462572127
