352
i =
  H        -3.9119925708       14.3839808167       16.5162700321
  C        -3.1514371215       13.5965199398       16.2486696614
  H        -3.6691097661       12.6174275448       16.2952275679
  C        -2.1008098527       13.8391323803       17.3022638105
  C        -2.7710027615       13.6901084232       14.7436892888
  C        -2.7801177025       13.7588534491       18.6740051378
  H        -1.3801181599       13.0025424401       17.1750437795
  H        -1.6222204765       14.8324103840       17.2563220119
  H        -2.1087973756       14.6185430011       14.6449396528
  H        -2.2570830458       12.7957795048       14.3737383063
  H        -3.7333816076       13.7657937021       14.1311791375
  C        -1.8147332502       13.7246975200       19.8291500707
  H        -3.3956942342       12.8077188347       18.6625437694
  H        -3.3236158195       14.6622457136       18.7866420903
  C        -2.4029298172       13.4796578466       21.1787590880
  H        -1.0914454579       12.9896996630       19.5212952140
  H        -1.2557154775       14.7077738699       19.7166646971
  C        -1.2771090034       12.7984070021       21.9905891762
  H        -3.2689324034       12.7759917755       21.1091983692
  H        -2.6991353783       14.3741670736       21.6941047808
  C        -0.0715808424       13.6866873129       22.4706200792
  H        -1.6600341310       12.3408000810       22.8878916563
  H        -1.0020898249       11.8390091276       21.6325366110
  C         1.0579739711       12.9164882852       23.2393956860
  H         0.4684712225       14.1098964080       21.6417663449
  H        -0.4105297378       14.5161599359       22.9591897657
  C         1.3219376052       11.6409685769       22.5964632462
  C         0.5249017168       12.2117759635       24.4247788136
  C         2.3727230817       13.7789386812       23.4310962386
  C         0.9954649875       10.5218670840       23.3529475300
  C         1.9691510124       11.2848548890       21.3057203824
  C         0.5111790188       10.8699501089       24.6275089875
  C         0.1678126805       12.8658133065       25.5865901480
  H         2.7963286600       14.2259298384       22.5643420366
  H         2.2184600536       14.4270352683       24.2518871753
  C         3.5174637647       12.9680641994       23.8176127913
  S         1.3496217366        9.0222175190       22.6540231362
  C         2.0478998609        9.8999658445       21.2662674273
  H         2.3083091340       12.0704750220       20.6420865036
  C         0.1045444904       10.2606672747       25.7767587273
  H         0.1554786290       14.0073280930       25.5394646936
  C        -0.3009947363       12.2247449532       26.7190861699
  H         3.9673998223       12.0846043198       23.2788834899
  H         3.3107985436       12.5661312931       24.8335944219
  C         4.8846628519       13.7477466624       23.9477583940
  C         2.5242379258        9.0837128424       20.1613902555
  C        -0.4218937169       10.8791661998       26.8618402604
  H         0.0695072879        9.2143957834       25.8704206287
  C        -0.7373625011       12.6122984284       28.0293391700
  H         5.4817912494       13.2759892379       24.6778659643
  H         4.7001151009       14.7249084013       24.2554319525
  C         5.7160830313       13.7866702055       22.6607130457
  C         2.4881116498        7.6758060503       19.9835497882
  C         2.8062172743        9.7657456083       18.9057611161
  C        -0.7136032857       10.1533471420       28.1576008226
  C        -0.9382456405       11.5252960488       28.8848665068
  S        -1.0293358022       14.0797512269       28.8229073429
  H         6.5082574797       14.4306110513       22.8304261382
  H         4.9875200953       14.0783908133       21.8668025396
  C         6.2088385883       12.3798398699       22.1759679313
  N         2.3657664860        6.6904112963       20.9247171855
  C         2.7499953308        7.0813626515       18.6891511330
  C         2.9600504104        9.2280822073       17.6922384507
  H         2.8581048521       10.9540369287       19.0283853401
  C         0.3940507944        9.3071647538       28.7646277165
  C        -2.0498507180        9.3210497101       28.0498163215
  C        -1.3390468641       11.9858770908       30.1925735023
  C        -1.4600776863       13.3330364652       30.2962366438
  H         6.8727568196       11.8612433780       22.8580409894
  H         5.3599620567       11.8397126601       21.7907465383
  C         7.1665659629       12.5726555695       21.0707819792
  S         2.3009943299        5.2228602778       20.2610583701
  N         2.6834814153        5.7052214180       18.7261188101
  C         2.8630240008        7.7861771797       17.4870157239
  H         3.3899816937        9.8814064715       16.8793475701
  H         0.6762538414        8.5019924681       27.9981952303
  H        -0.0011632548        8.7830507091       29.5964042438
  C         1.7217799679       10.1755746995       29.1203538150
  H        -1.7855629546        8.6262310305       27.2455180666
  H        -2.1135074499        8.6916996843       28.9119494544
  C        -3.1997469484       10.3192014408       27.7183749132
  H        -1.3651490626       11.2664374516       31.0722251220
  C        -1.5887979974       14.0581118972       31.5364336478
  H         7.7166358870       11.6868766715       21.0718645829
  H         7.9943370221       13.3421059586       21.4127222894
  C         6.6712408604       12.9105084172       19.6350915931
  C         3.1853546216        7.1339095434       16.3008057479
  H         1.9199746470       10.8506768603       28.2596268715
  H         1.1406978544       10.8479374252       29.8598088435
  C         2.7255142495        9.4192785028       29.9511769911
  H        -2.8799196156       10.9959075429       26.8662064613
  H        -3.4305626524       10.8599644261       28.7208179462
  C        -4.3822584955        9.5042733352       27.2166940528
  C        -1.6712105081       15.4562630187       31.6299981793
  C        -1.8668449487       13.3979488433       32.8676071048
  H         5.7167607550       12.5411359807       19.3212349236
  H         6.4483412142       14.0316370153       19.7315269849
  C         7.7638929646       12.8837671904       18.5088362105
  H         3.0175144033        6.1159583273       16.2333937473
  C         3.4748881812        7.6753260287       15.0097921711
  H         3.4930067437        8.9494696962       29.3296114928
  H         2.3897292579        8.6217601113       30.4349930106
  C         3.6063679222       10.3289274870       30.7544074864
  H        -4.0531968584        8.8143097902       26.4726159631
  H        -4.8335907560        9.0527274192       28.0143879044
  C        -5.4388980886       10.3863639318       26.4252548072
  N        -1.5831357035       16.3654015589       30.5876827657
  C        -1.9320295224       16.1408347358       32.8242226001
  C        -2.0232715254       14.0487044679       34.0396635727
  H        -1.8655954580       12.3534411458       32.8135930322
  H         7.6270152999       13.6641826363       17.8083866896
  H         8.7142371656       13.0391652239       18.8470053523
  H         7.8056896669       11.8745289760       18.1511127008
  S         3.5612967225        9.2758846904       14.4702401365
  C         3.6149061529        6.6999236254       13.9618790409
  H         3.7168689434       11.3104604065       30.2480363287
  H         3.3344109095       10.3805393654       31.7804236050
  C         5.0550506709        9.6482194207       30.8390907321
  H        -4.9187887710       10.8381493740       25.5316111915
  H        -5.8523842810       11.2088059663       27.1494320888
  C        -6.4337336999        9.3761871829       25.8907249385
  S        -1.5943958416       17.8471000505       31.1282541355
  N        -1.9372282269       17.4724886209       32.6602548983
  C        -2.2287917953       15.4916728667       34.0786393907
  H        -2.0147319763       13.3417990439       34.9554069491
  C         3.9315652208        8.6665733380       12.8634512334
  N         3.8354894818        7.2928310101       12.8172650557
  O         3.6145032523        5.4242299217       14.0048496720
  H         5.6489392811       10.4924323002       31.3233942004
  H         5.4149446028        9.4768414514       29.8454671777
  C         5.2879933552        8.4100795148       31.7036871045
  H        -5.9094332034        8.4050271724       25.4897385775
  H        -6.7136424355        8.7407420152       26.8029636263
  C        -7.5293217858        9.9542871897       24.9755679884
  C        -2.4753687283       16.3825144327       35.2245697798
  S         4.2303850279        9.3737334357       11.3323706359
  C         3.9490862482        6.4240156663       11.5464568054
  H         5.8337027751        8.4841936470       32.6246084127
  H         4.3787896215        8.0164502958       32.0691483028
  C         6.1712865317        7.4119397346       30.9130798013
  H        -7.3661308553        9.3085215390       24.0451555241
  H        -7.2475502906       10.9801704420       24.7089016663
  C        -8.8426318287        9.9808787290       25.7280892750
  H        -2.3658489705       17.4189040148       35.1594276993
  C        -2.9056726266       16.0032813177       36.5295642294
  H         4.5018025070        6.8901676153       10.7595287321
  H         4.5234987858        5.6056410027       11.7065995771
  C         2.5413596472        6.3145889025       10.8719144872
  H         7.0785105847        7.8645235810       30.9144667684
  H         5.9505384974        7.2946845042       29.8807208788
  C         6.2454004025        6.0862463854       31.6255003299
  H        -9.6871452470       10.0798449689       24.9629923513
  H        -8.9450221354        9.0282229513       26.2043981940
  C        -8.7864668614       10.8887746420       26.9131088645
  S        -3.3096349406       14.4167757621       37.1150387114
  C        -3.1143476862       17.1309931769       37.4601080794
  H         2.5201659267        6.8575684259        9.8933197829
  H         2.3347346526        5.3495882687       10.6080437417
  H         1.8118729704        6.5769223412       11.5937413669
  H         5.3670236453        5.4988690687       31.5170191163
  H         6.3407961608        6.3738300042       32.6283148465
  H         7.1903486918        5.6617949069       31.4240559899
  H        -8.1061274873       10.5534387293       27.5989174863
  H        -9.7463129871       10.9607591525       27.4635270022
  H        -8.3889035210       11.8683481825       26.5649360146
  C        -3.8969005607       15.3008712547       38.5479651358
  N        -3.6268698566       16.6557503680       38.5267179708
  O        -2.9090443476       18.3015376042       37.1321242594
  S        -4.8350393196       14.7396327076       39.9245228104
  C        -3.8463188348       17.5163713722       39.6876281661
  H        -3.8366627460       18.5501338926       39.3407931757
  H        -4.8383379636       17.3703576238       40.1506359767
  C        -2.8293142908       17.2107297681       40.8013899902
  H        -1.7968613488       17.1412478037       40.4221983940
  H        -2.9936708089       18.0858945431       41.5070347702
  H        -2.7793701119       16.2888318350       41.2748141959
  H         7.4399396049       11.4976699794        3.5740411095
  C         7.8966400494       10.4413027531        3.5375193978
  H         7.0474785774        9.6660824428        3.5635287974
  C         8.7706385956       10.5237806803        4.8161909576
  C         8.7271583324       10.4420075070        2.2697117126
  C         7.7714575570       10.5064778005        6.1288349318
  H         9.4960467333        9.6855265131        4.7346487410
  H         9.2744206661       11.4519113496        4.7313049073
  H         8.1599468994       10.7481931603        1.3947395781
  H         9.1589237982        9.4487432088        2.0992624326
  H         9.6212677822       11.1090951980        2.2924262382
  C         7.4337651414        9.2557652279        6.8298210155
  H         8.3533400618       11.0455943102        6.9493233543
  H         6.8534465099       11.1934153235        5.8305806950
  C         6.6490892603        9.6015545670        8.1362389565
  H         8.3950256072        8.9925235058        7.2160091716
  H         7.1165134535        8.4686114057        6.1173348451
  C         5.4495218842       10.4806355554        7.9339886017
  H         7.2703757536       10.0789173813        8.8089722254
  H         6.3375029364        8.8743032605        8.8527856662
  C         4.1856399572        9.7274925510        7.3734683241
  H         5.1165994452       10.9728899918        8.9176607179
  H         5.7249308096       11.4524580269        7.5711310629
  C         3.0057682612       10.6711534992        7.0874668588
  H         3.8536533764        9.1051832700        8.2450627180
  H         4.4886846857        9.1473977407        6.5925085270
  C         3.3343649245       12.0122613601        6.4022656278
  C         2.6081423681       11.4059712997        8.3465278006
  C         1.7656760214        9.9982324808        6.3926329167
  C         3.0375740052       13.1467783274        7.1706631301
  C         3.9459999870       12.4161616596        5.2118733120
  C         2.5956506769       12.8076217853        8.4483073793
  C         2.0132178111       10.7778704382        9.4040198398
  H         2.0556012735        9.6044840898        5.4744563513
  H         1.5865997953        9.0837126977        6.9346899317
  C         0.5331445648       10.9036347794        6.2193061716
  S         3.3411857125       14.6102217775        6.3442798101
  C         3.9842956584       13.7433880436        4.9978778287
  H         4.1346130133       11.5658283278        4.4872255309
  C         2.1030030470       13.4420335674        9.5725798714
  H         1.8311836662        9.7810434879        9.2362390056
  C         1.5502286881       11.3679687387       10.5504496145
  H         0.5926698795       11.9166405186        5.7645180231
  H        -0.2057211246       10.9727524846        6.9903655099
  C        -0.3559545049       10.2438597720        5.0939549564
  C         4.4651288196       14.3557806835        3.8092155544
  C         1.6022195281       12.7442279820       10.6962147186
  H         2.1837172336       14.5208623757        9.6788657369
  C         1.1187525486       11.0164933315       11.8592744303
  H        -1.3908705640       10.6034520933        5.1620864215
  H        -0.3899853534        9.2533348572        5.2979142659
  C         0.0991312304       10.4429969434        3.6500908773
  C         4.3039671376       15.6818544796        3.4667622359
  C         4.8116467541       13.4926461156        2.5815151462
  C         1.1610277499       13.4666291494       12.0114655956
  C         0.8203351857       12.1139004267       12.6590571148
  S         0.8346828607        9.5621083457       12.5241081606
  H         1.0006609690        9.9001709875        3.5835190883
  H         0.3121257749       11.5367782967        3.5813549171
  C        -0.9029398639        9.9846682523        2.5781804448
  N         4.0529228409       16.6006959226        4.4271424478
  C         4.5043507155       16.2132334253        2.1608831040
  C         5.1693105881       13.9796607971        1.4011031231
  H         5.1947259924       12.6059159695        2.9555894480
  C        -0.1167417364       14.2099812750       11.7011395858
  C         2.3481212361       14.3906716559       12.6975436246
  C         0.2792079871       11.7006345215       13.8282076909
  C         0.3475261183       10.3747602340       13.9961480907
  H        -1.2586336795        8.9423037264        2.6445307307
  H        -1.7456190222       10.6397006606        2.6850957846
  C        -0.3433758328       10.1826660075        1.1173250285
  S         3.9084420932       18.0162741275        3.6102939690
  N         4.4801921772       17.5916432405        2.1643846057
  C         4.8351361430       15.3436868251        1.0779341737
  H         5.4688597494       13.3634132217        0.6203572549
  H         0.1798164209       15.0794330058       11.2266345887
  H        -0.5950382426       14.5282260459       12.6645953396
  C        -1.1776323610       13.3350152162       11.0094486948
  H         2.8638053006       14.9888557654       11.9427850303
  H         2.0424974753       14.9331942863       13.5634064341
  C         3.3804572834       13.3957733584       13.1610138849
  H        -0.0208103857       12.5157595157       14.4948751422
  C        -0.0018492878        9.6261193697       15.2096136207
  H         0.7485124223        9.9413704540        1.0037089505
  H        -0.4653136922       11.1134752232        0.7767638809
  C        -0.9776039604        9.4292534127        0.0161215557
  C         5.0382655965       15.9227087417       -0.2310591333
  H        -0.9600713606       13.3341189228        9.8665539328
  H        -1.2742666887       12.3145763800       11.4465639522
  C        -2.5405139090       14.0276139776       11.1045237747
  H         3.7328166852       12.8136718845       12.2537713719
  H         2.8944814702       12.7242514453       13.9046246087
  C         4.6274526658       14.2148693582       13.7518687095
  C         0.0100232516        8.1732141557       15.3636371026
  C        -0.0648785717       10.3431130717       16.4920385858
  H        -1.0654598867        8.4297081872        0.2742858061
  H        -1.8617657270        9.8608406029        0.1291854097
  C        -0.3180411599        9.6621706079       -1.3668800716
  H         4.9380841635       16.9965095172       -0.2263595070
  C         5.4488194266       15.4715327557       -1.4725169565
  H        -2.6840763192       14.7511263753       10.3260991390
  H        -2.6419378226       14.5514088636       12.0392116742
  C        -3.6657337231       12.9959837378       11.1470922592
  H         5.0852856538       14.6560606917       12.8890338067
  H         4.2281241111       15.0601247033       14.3178164397
  C         5.5430145102       13.5278891642       14.6262115264
  N         0.2436858937        7.2352503429       14.3287796312
  C        -0.1772255831        7.5280299769       16.6307426016
  C        -0.1971146642        9.6872732216       17.7092954230
  H         0.1267298166       11.3483038017       16.4923942656
  H        -0.2131231962        8.7708953428       -2.0210110242
  H         0.6642883333       10.0697409641       -1.2071744844
  H        -0.8508018537       10.5174624305       -1.8704538499
  S         5.8165615851       13.8715721153       -1.9207878638
  C         5.5417493981       16.5106554744       -2.5195809338
  H        -3.5599280496       12.0704723783       10.4678265957
  H        -3.7407779889       12.6980789952       12.2110015821
  C        -5.0111600650       13.5887274350       10.8208886908
  H         5.6414096589       12.4383255864       14.3616662894
  H         5.3613254887       13.6128237472       15.6531987027
  C         6.9086352523       14.2404005130       14.3754934246
  S         0.0241573105        5.7532374192       14.9256496902
  N        -0.2388674157        6.1170970129       16.4895115415
  C        -0.4579882492        8.2519063021       17.7481083071
  H        -0.3655931638       10.1406942728       18.6853813822
  C         6.0240152453       14.5546943026       -3.6340728043
  N         5.8951945464       15.8896036005       -3.6898626554
  O         5.3362820001       17.7490587621       -2.3736977589
  H        -5.6698323271       13.2150054134       11.5981569398
  H        -4.8020048594       14.6636513446       10.7934129633
  C        -5.3480597884       13.3787575637        9.3283088526
  H         7.5563125799       13.4624228909       14.7814095076
  H         7.0934015039       14.3319331996       13.3130076081
  C         6.8882861256       15.6302808111       15.0113957873
  C        -0.7466634307        7.4892017538       18.9502823937
  S         6.6713237066       13.6061093778       -4.9502494756
  C         5.9818485242       16.6213541220       -4.9147548133
  H        -4.4931410535       13.7553278246        8.7129176926
  H        -5.3313329288       12.3455724900        9.0064839890
  C        -6.5664337706       14.0120168223        8.7557828559
  H         7.1087441809       15.7465822431       16.0586006245
  H         5.8141622619       15.9562988761       14.9525116561
  C         7.7601723213       16.5481989620       14.2114845932
  H        -0.2989381058        6.4914447396       19.0208596622
  C        -1.2190937795        7.7725725547       20.2176207373
  H         6.6524078987       16.0408487891       -5.6435200589
  H         6.5048987089       17.5468445343       -4.9479578543
  C         4.6420789211       16.7237719881       -5.6101156853
  H        -6.7881869966       13.7150904374        7.6965296531
  H        -6.2222244243       15.0675235779        8.6050690800
  C        -7.7137264771       13.8036011984        9.6379702701
  H         8.7531766805       15.9671780061       14.0085324658
  H         7.4679851264       16.7022155842       13.2429418863
  C         8.0995748069       17.8497146457       14.9830125354
  S        -1.9001920542        9.2096147961       20.6437455145
  C        -1.2970180869        6.6619166988       21.2494679959
  H         3.8212358786       16.8585217267       -4.9889991667
  H         4.4230667398       15.9572363546       -6.3628698018
  H         4.7217783334       17.6510681118       -6.1631813407
  H        -7.7483130628       14.7475349846       10.2250145707
  H        -8.5488432107       13.9143141562        8.9762302640
  H        -7.6356340055       12.8563878638       10.0910005809
  H         8.9903210042       18.3090765746       14.6724288696
  H         7.5079270608       18.7009620618       14.8998724968
  H         8.3035324391       17.6601780040       16.0330071506
  C        -2.1707134156        8.4906348005       22.2151575168
  N        -1.9647480942        7.1472232557       22.2935274560
  O        -1.0567742378        5.4335137507       21.0251586518
  S        -2.8855290544        9.3758228544       23.4403725452
  C        -2.2641611430        6.3932133966       23.4700737337
  H        -2.1356893656        5.2898664629       23.3458142599
  H        -3.2777036207        6.7301408357       23.7234965848
  C        -1.1789833130        6.4347956674       24.4893807000
  H        -1.1662517023        5.3806724105       24.8868347952
  H        -1.3731232682        7.2489658729       25.2396336078
  H        -0.2964756993        6.7799048063       23.9376409663
