352
i =
  H        -3.6167767949       15.2443158735       15.9358016749
  C        -3.2629230277       14.2217668262       16.1838582946
  H        -4.0381732266       13.5504393857       16.5892629062
  C        -2.2631966047       14.3446099252       17.3051510434
  C        -2.7016810204       13.6112878704       14.9011986757
  C        -2.8310145839       14.1207482006       18.8100986921
  H        -1.5455305173       13.6400806062       17.0796691738
  H        -1.8314241074       15.3730690815       17.2957652933
  H        -3.4222212989       13.7285533353       14.0986328902
  H        -1.8846873065       14.2675635059       14.4394688865
  H        -2.3970351101       12.5573936146       14.9827952388
  C        -1.7105054077       14.0104280969       19.8213833196
  H        -3.4946579413       13.3603113543       19.0068088779
  H        -3.4831638016       14.9811573416       19.0595643229
  C        -2.2244662323       13.7183633704       21.2620272224
  H        -0.9967107722       13.3520540225       19.4096389111
  H        -1.1374767033       14.9714423606       19.7876236065
  C        -1.1800705113       13.0479087938       22.0357302571
  H        -3.2190783028       13.1226463603       21.0813398305
  H        -2.4292527655       14.7572375930       21.5679567246
  C        -0.1086609986       13.9438170558       22.5122012856
  H        -1.7026357387       12.5887263911       22.9400947048
  H        -0.8385083692       12.2544979079       21.3653822155
  C         1.0512377858       13.1164038173       23.2770913330
  H         0.3063133457       14.6864842196       21.8756728692
  H        -0.5593025559       14.5313648258       23.2262784328
  C         1.4742761841       11.7238111376       22.6218504283
  C         0.5672352954       12.3742361807       24.4712215756
  C         2.3557110105       14.0372025442       23.5378710635
  C         1.1819826850       10.6234192794       23.3868620207
  C         2.1392717894       11.3504413600       21.4665234881
  C         0.6609147600       11.0614343922       24.5880616103
  C         0.0842735898       13.0852936963       25.5957346711
  H         2.5412553021       14.7363373042       22.6978255573
  H         2.0979526916       14.5721431333       24.4316946918
  C         3.6273617206       13.2098438734       23.8682935437
  S         1.4740629647        9.1623901914       22.6869487047
  C         2.1711859233        9.9745028953       21.3667580365
  H         2.2904300080       12.1059178594       20.7073889040
  C         0.4787965366       10.4319355356       25.7764962291
  H         0.0636307715       14.1421586703       25.5875666622
  C        -0.1444979213       12.4994350364       26.7843663783
  H         3.6641515221       12.2325460113       23.4307033764
  H         3.4716973933       12.8884723072       24.8554320600
  C         4.9188842005       14.0208691579       23.9192987323
  C         2.5890471625        9.2005031775       20.1695569977
  C        -0.0632311504       11.1342949790       26.8962544754
  H         0.7467953939        9.4183899787       25.8114694144
  C        -0.5551433959       12.9165680139       28.0212736012
  H         5.7224048426       13.6361295606       24.5554495148
  H         4.7337848084       14.8953050534       24.4312516342
  C         5.5279687372       14.2792645398       22.5800503107
  C         2.5104761002        7.7881877048       19.8622904719
  C         3.0173488745        9.9797983777       18.9739488100
  C        -0.5526807537       10.5233742807       28.1910326965
  C        -0.8004727658       11.8863746247       28.8184255419
  S        -0.8638228504       14.4474574620       28.7409186152
  H         6.3821103859       15.0327231932       22.6470219443
  H         4.8115673680       14.4465287071       21.8287927554
  C         6.3105068157       13.0296721003       22.0934446746
  N         2.1974299205        6.8452177277       20.8227531674
  C         2.7233996744        7.2380705605       18.5991234589
  C         3.3053403322        9.4318889027       17.7272482969
  H         3.3493484570       11.0290706270       19.1982213645
  C         0.4331676027        9.7351238887       29.0275484784
  C        -1.8340175089        9.6893690284       27.8348428034
  C        -1.1548242993       12.3354831357       30.1142642907
  C        -1.3188711315       13.6575646123       30.2072426085
  H         7.2598860881       12.8406683634       22.5771847982
  H         5.8247369063       12.1567430941       22.4358558970
  C         6.3706134744       12.8364974665       20.5769550071
  S         2.1071120153        5.3986683330       20.1446585675
  N         2.4663951497        5.8520005335       18.5677621110
  C         3.0638040147        7.9445002474       17.5063798630
  H         3.7231102660       10.1112038911       16.9881440567
  H         0.8573248059        9.1225639755       28.2966782366
  H         0.0711619768        9.0810288621       29.7972609531
  C         1.5681008039       10.4957716939       29.6835197766
  H        -1.4990408820        8.9103593371       27.1539024981
  H        -1.9921037747        9.1690150660       28.7737392336
  C        -3.0588300978       10.5643047298       27.4908320038
  H        -1.1792573893       11.6444981800       30.9678716774
  C        -1.6789043117       14.4690883229       31.5023884002
  H         5.4597881914       13.1734044944       20.0174357420
  H         6.2761141261       11.8370057106       20.3707255338
  C         7.7105303296       13.3296018570       19.9698379312
  C         3.1331348755        7.4023553810       16.2053241444
  H         1.9641683129       11.1452362464       28.9071986356
  H         1.2372048668       11.0467698324       30.6003377846
  C         2.7177523150        9.5714864490       30.0050047887
  H        -2.9159073923       11.2033040339       26.7191498065
  H        -3.2759753032       11.3191491702       28.2920253719
  C        -4.2258981216        9.6639823006       27.2164672029
  C        -1.7966872609       15.8809918201       31.6488146887
  C        -1.9964008292       13.7183940780       32.7496867001
  H         7.8439731651       14.2726653446       20.5209623164
  H         8.5090512021       12.6146363069       20.0366061371
  C         7.5856568803       13.5751639989       18.5331944703
  H         2.8910852825        6.3920316566       16.2516874594
  C         3.4801572673        7.8559948779       14.9874054756
  H         2.9346817010        9.0398135651       29.1171407510
  H         2.3346808641        8.7708123875       30.7172302868
  C         3.8432817824       10.3138269559       30.6753609341
  H        -3.9392721470        8.8983167325       26.4705717260
  H        -4.5835785805        9.1120149753       28.1196018362
  C        -5.4249084314       10.6277481197       26.8252602438
  N        -1.4012168244       16.7390891792       30.6546884732
  C        -2.1033956133       16.4788276340       32.8344619183
  C        -2.2769040560       14.3091570974       33.9845271192
  H        -2.0432588446       12.6694635841       32.5714360349
  H         6.8705045227       14.3169680189       18.3323049895
  H         8.5504482466       13.8638065584       18.0502065203
  H         7.2589669811       12.5681469358       18.0233299090
  S         3.7857324491        9.4879492470       14.4083208847
  C         3.4041217199        6.8281318784       13.9156635626
  H         3.9874683592       11.3328639653       30.3237842522
  H         3.7696455194       10.1841668181       31.7522630898
  C         5.1979483925        9.7254383578       30.3156283621
  H        -4.9839173754       11.4312938219       26.1578723119
  H        -5.8038327627       11.3156131474       27.6905082246
  C        -6.4764869028        9.8324169904       26.0773214305
  S        -1.6798680843       18.2558469668       31.2189818405
  N        -1.8799832699       17.9045160468       32.7829404925
  C        -2.3215038730       15.7941960279       34.0363116182
  H        -2.3497628463       13.8012233900       34.8667498349
  C         3.6677868457        8.7899123981       12.8184186303
  N         3.7273653315        7.4758104232       12.6886772759
  O         3.1339013205        5.6527860224       14.0483816037
  H         5.8154577258       10.5476187423       30.7086121032
  H         5.4486646198        9.7832264964       29.2432587855
  C         5.5087261682        8.3343189950       30.8286542873
  H        -5.8449729717        9.3923297423       25.3013862443
  H        -7.0910914291        9.0486855164       26.4741097488
  C        -7.2782967605       10.8538986661       25.2946739878
  C        -2.4002409453       16.4733827745       35.2919143231
  S         4.1873372882        9.7096822616       11.3978636772
  C         3.8702029900        6.7319580224       11.4394778260
  H         5.8024813675        8.3596192718       31.8632925624
  H         4.5497674385        7.7613983573       30.8287057869
  C         6.5591982040        7.5631230553       29.9227322437
  H        -6.5564249133       11.2806297504       24.6290484762
  H        -7.6058111352       11.7511415724       25.8551594811
  C        -8.5076908406       10.1522636621       24.5248714322
  H        -2.0100843909       17.4953204778       35.2473789140
  C        -3.0450178085       16.2036367118       36.4570816590
  H         4.5452332811        7.2001520156       10.7832236616
  H         4.3285031225        5.7403553554       11.6998445985
  C         2.4228302653        6.6236462320       10.9511561378
  H         7.5240689467        8.0927830806       29.8912685207
  H         6.4121859110        7.5962894165       28.8688538033
  C         6.8988350833        6.1233988805       30.1969768569
  H        -8.7423634522       10.7604928137       23.6911526167
  H        -8.2156033001        9.3011540123       24.1411441863
  C        -9.5886805185       10.0345524403       25.5583128806
  S        -3.9228314204       14.8376598463       36.9799545671
  C        -2.9026005516       17.2814727757       37.4803976366
  H         2.3052145993        6.9637677323        9.8820719197
  H         1.9274453984        5.6454799496       11.0012119698
  H         1.7874669369        7.2606559703       11.5603751088
  H         7.5625345696        5.5674955247       29.5414062302
  H         6.0187353142        5.4439807516       30.3321166333
  H         7.3388548354        6.0743311730       31.1671144137
  H        -9.3205834293       10.5980148411       26.4142574366
  H        -9.9645541582        9.0053361456       25.9278858491
  H       -10.5064525974       10.5540211016       25.1647829914
  C        -4.1395350821       15.6070348260       38.5025298249
  N        -3.5820258366       16.8500946686       38.5739593696
  O        -2.3591263812       18.3326511161       37.3635908629
  S        -4.7783518020       14.9039567688       39.8802610455
  C        -3.4856191604       17.5743971744       39.8590678582
  H        -3.2554535153       18.6106003541       39.7499207602
  H        -4.3501444019       17.4353881773       40.4790367936
  C        -2.4373323445       16.9954580576       40.6413019619
  H        -2.7634341764       16.2847348848       41.3082850245
  H        -1.6445835547       16.6646023429       39.9561751356
  H        -2.0805466020       17.8064018367       41.2846431514
  H         9.7474289320        9.8041450694        4.5280029541
  C         8.9791216961       10.4589292440        4.0910256440
  H         9.1446344947       11.5373718828        4.1934355611
  C         7.7261878407       10.2208821568        4.8695438114
  C         8.7694878294       10.1168384121        2.5166591808
  C         7.9903516686       10.0951675989        6.3879443687
  H         7.0059774553       10.9945721791        4.5291545601
  H         7.4146096137        9.3035616888        4.5711600136
  H         8.7775943272        9.0566423844        2.5379463802
  H         9.4382814273       10.2489469433        1.6739907517
  H         7.8848981422       10.4665094254        2.1244656868
  C         7.0582099890        9.1711737648        7.1840116745
  H         8.8795865317        9.5203264076        6.5969682229
  H         8.2075189614       11.0314019384        6.8911963680
  C         6.3725708947        9.7110250084        8.4014499839
  H         7.6395530021        8.2653080875        7.4713848039
  H         6.4256061671        8.8761737830        6.3804029834
  C         5.2352353981       10.7377637766        8.2078655605
  H         6.9135247000       10.0150506296        9.2831215462
  H         5.8594541918        8.8484086295        8.8256167843
  C         3.9043330369       10.1515192904        7.5547333622
  H         4.9758138421       10.9550961482        9.2795842115
  H         5.6547134984       11.5796426800        7.7316531806
  C         2.7892595889       11.0926584746        7.3108281224
  H         3.5307835132        9.2435123013        8.1889851434
  H         4.0976112411        9.7813398209        6.5694349584
  C         3.2773268395       12.4061439729        6.6424527822
  C         2.3376789786       11.8467462782        8.4902653030
  C         1.7143329966       10.3396772890        6.5105956435
  C         3.1334120634       13.5768189946        7.4180240915
  C         3.7573217975       12.7236105439        5.3620987360
  C         2.5523891602       13.2241184953        8.6444370709
  C         1.7761489925       11.2694036341        9.6443590725
  H         2.1431030174        9.8495537431        5.6813949564
  H         1.2750569963        9.5728592765        7.2604629742
  C         0.5525269018       11.2430486918        6.1175837829
  S         3.6387756416       14.9695230726        6.6737774856
  C         3.9067689736       14.0791262518        5.2758752857
  H         3.5767148593       11.9496872318        4.5447194062
  C         2.0377673151       13.8875708106        9.6754809073
  H         1.4870802757       10.2286538439        9.5264363568
  C         1.4759988218       11.9134126144       10.8060497140
  H         0.8220261545       12.2926945662        5.9412694721
  H        -0.1379032174       11.2776568260        6.9538286780
  C        -0.4111970210       10.7080043379        5.0867524648
  C         4.3721600714       14.7145686692        3.9827717164
  C         1.5818104722       13.2620825719       10.8504240491
  H         2.1847308293       14.9072564434        9.7557356494
  C         1.0653434718       11.4670853816       12.0079420066
  H        -1.3078240725       11.2941513750        5.1509007182
  H        -0.6555863705        9.6804314436        5.4090063262
  C         0.1181088047       10.7138563686        3.6714874536
  C         4.4714402976       16.0701756885        3.7390804313
  C         4.6028046140       13.8280527295        2.8321808357
  C         1.2329050489       13.9441137506       12.1208668953
  C         0.8622400828       12.5913890774       12.8356493251
  S         0.7003780026        9.9350056409       12.7502555387
  H         1.1848122125       10.3957379763        3.5690234714
  H         0.0922429353       11.7744809406        3.4710947807
  C        -0.6506268944        9.8857778861        2.6471223030
  N         4.3979614508       17.0304788558        4.7129177394
  C         4.6577798681       16.5699453249        2.4885652002
  C         5.0427966960       14.3407802721        1.6351788432
  H         4.5158417636       12.7921305682        2.9134269413
  C        -0.1271228551       14.7483351051       11.9733633092
  C         2.3467300845       14.6187670692       12.9883044921
  C         0.4452055848       12.2156555014       14.1024668736
  C         0.4074376035       10.8177003153       14.2184481159
  H        -0.4023779111        8.8491810268        2.7009984469
  H        -1.6746871500        9.9153113645        2.9354802138
  C        -0.3133195042       10.4056874823        1.1949214516
  S         4.4303741025       18.4318570628        3.9316454967
  N         4.8456236434       17.9067881472        2.4363273948
  C         4.9362739062       15.7948040034        1.3823870896
  H         5.1694046739       13.6543758561        0.7308185332
  H         0.0680876703       15.6596343254       11.4119041572
  H        -0.4369480824       15.0554204596       12.9837657772
  C        -1.2432940470       13.9341240261       11.2993234968
  H         2.7287701431       15.4979863310       12.5146715531
  H         1.7619649414       15.0274750625       13.8037765841
  C         3.4527478106       13.4893021506       13.4460639037
  H         0.4579306125       12.9141265346       14.9382609222
  C         0.1288017229       10.0823223133       15.5074573814
  H         0.6689534586        9.9530020041        0.8654356880
  H        -0.2930181339       11.5531873058        1.0669743516
  C        -1.3341575404        9.9696793764        0.2372920107
  C         5.1993690566       16.4272355904        0.1358370387
  H        -0.9874585936       13.4168341009       10.3559467169
  H        -1.5125680089       13.0974592942       11.9756086729
  C        -2.6124589978       14.6675216650       11.1182518061
  H         3.6886069865       12.8812474907       12.5681040760
  H         3.2057557940       12.7756039422       14.1982546188
  C         4.7200008858       14.2465913338       13.7524763991
  C         0.0151043843        8.6934446738       15.6875029229
  C        -0.0747801906       10.8215586046       16.7493944000
  H        -1.4908213448        8.9227526688        0.4417664717
  H        -2.2839692027       10.5022666952        0.4121675688
  C        -0.8597762836       10.1256874513       -1.1346945210
  H         5.0966543752       17.4343404560        0.0910304071
  C         5.4211596319       15.8708271745       -1.1238591287
  H        -2.4805371514       15.4912589061       10.4615186631
  H        -3.0071462758       15.0848490587       12.0692156254
  C        -3.6224968917       13.6781851044       10.5050338745
  H         5.2439393626       14.7766308991       12.9002989736
  H         4.1777532305       14.9852297745       14.2852901935
  C         5.7619295550       13.4767124967       14.6677222137
  N        -0.0123445531        7.8375596169       14.6448370712
  C        -0.2670282163        8.0529339727       16.8609974585
  C        -0.3316643675       10.1816741895       17.9211127868
  H        -0.0873814449       11.8592140512       16.8311884352
  H         0.0023493014        9.5752646270       -1.2897355834
  H        -0.5460817535       11.1223148458       -1.3996415077
  H        -1.5700613359        9.8814117486       -1.8942720758
  S         5.7634285188       14.3011318540       -1.6062042224
  C         5.4603201560       16.8817485139       -2.2500619234
  H        -3.1565027003       12.9106954968        9.8872783267
  H        -3.9650927210       13.1075888666       11.3775093018
  C        -4.7040281086       14.4029590601        9.7388965331
  H         5.8670237060       12.4409732504       14.3782507234
  H         5.4547840107       13.4689537115       15.7389433154
  C         7.2264005509       14.1220770089       14.7426425027
  S        -0.2220060305        6.2285731131       15.2492802827
  N        -0.3976992297        6.6714771091       16.7608126719
  C        -0.3836388291        8.7199699028       18.0707149505
  H        -0.5253330581       10.8515185266       18.7760942191
  C         5.7637588801       14.8885330258       -3.2033186192
  N         5.7408953814       16.1883821194       -3.3333127113
  O         5.2630298980       18.0627485309       -2.1496846296
  H        -5.2209959862       15.2007853541       10.4061085953
  H        -4.4059956217       15.0912389076        8.9402196110
  C        -5.7263148365       13.5632497978        8.9664041282
  H         7.8964656797       13.5465212012       15.3278606375
  H         7.7084661963       14.0557666559       13.7533702631
  C         7.2139939144       15.5566194299       15.2047697641
  C        -0.7878560694        7.9504181238       19.2414269456
  S         6.2697711014       13.8059339739       -4.5626539250
  C         5.6901141280       16.9772692404       -4.5930966959
  H        -5.7056310202       13.6954598434        7.9073663492
  H        -5.5713374754       12.4799439060        9.2157334892
  C        -7.1758433660       14.0102420786        9.3412136298
  H         7.4443724036       15.8434852452       16.2494227165
  H         6.3167827617       16.1090743651       15.0962325629
  C         8.2024674208       16.3712881828       14.3283584852
  H        -0.3464004687        6.8955828958       19.2888525435
  C        -1.4749643228        8.2058161808       20.3885364886
  H         6.2256625843       16.3464278596       -5.3394296575
  H         6.2580109010       17.8158182863       -4.4487388628
  C         4.3346992313       17.0204974716       -5.2802353875
  H        -7.9059320262       13.6304487086        8.5985204887
  H        -7.2455627745       15.0806415892        9.3781458507
  C        -7.6015734061       13.5559694473       10.6534969125
  H         9.2575523795       15.9147559295       14.2942596529
  H         7.8212518736       16.2304444411       13.3058036833
  C         8.3189811642       17.8646495019       14.6855155347
  S        -2.1554921279        9.6566362689       20.8580419509
  C        -1.6854253098        7.1028497046       21.3278754730
  H         4.1186372708       17.9022184985       -5.9066579264
  H         3.5819888544       16.9670188741       -4.4283057717
  H         4.2437306600       16.0897763069       -5.8377914323
  H        -8.3334150400       12.7585595067       10.5878352044
  H        -6.8866104233       13.2885789528       11.3395514671
  H        -8.1314388399       14.3058940934       11.1374491373
  H         9.1881199847       18.1716079347       14.1745501098
  H         7.3914436637       18.4730038507       14.5278674333
  H         8.5035423901       17.9859130219       15.7569820675
  C        -2.4304464928        8.8739583885       22.4146752012
  N        -2.2604608870        7.5563936319       22.4635566575
  O        -1.4070959521        5.9363849483       20.9634884894
  S        -3.1442677246        9.6466200651       23.8171591965
  C        -2.3978095964        6.8491475669       23.6954378336
  H        -2.3554233459        5.7849752787       23.3681780853
  H        -3.4044793739        7.0712371740       24.0401970999
  C        -1.2260662625        6.9927363589       24.7176708613
  H        -0.2829490577        6.6753174196       24.2607117012
  H        -1.3436876221        6.5036389766       25.7264283313
  H        -1.2671917302        7.9912179954       24.9096781611
