352
i =
  H        -1.0885347647       14.6777893098       15.3542700998
  C        -1.9848384803       14.2637499705       15.8575928708
  H        -2.6093019600       15.0931646115       16.0723066550
  C        -1.5423352534       13.5609360285       17.1242654391
  C        -2.7491793649       13.4600061120       14.8358554655
  C        -1.6580208489       14.3406606017       18.4102584362
  H        -2.0331408957       12.5806131844       17.2708987401
  H        -0.4286838088       13.4362009799       16.9470045776
  H        -2.0696319368       13.0737538748       14.0888303853
  H        -3.4082823005       12.7025138294       15.1320318165
  H        -3.2018178464       14.1561792595       14.1414887361
  C        -1.2669763440       13.3938633227       19.6242414977
  H        -2.7386085139       14.5678759628       18.6671914575
  H        -1.0731286152       15.2677895041       18.2920236129
  C        -1.8678624055       13.7161851930       21.0166310602
  H        -1.4514126004       12.3565919875       19.3796799833
  H        -0.1725585235       13.4103265010       19.6839085100
  C        -0.9827443951       13.1575254804       22.1977679288
  H        -2.8562671817       13.2662235865       21.1979777214
  H        -2.0257193999       14.7912903236       21.0213198514
  C         0.3863201646       13.9147086169       22.5379774058
  H        -1.5272740582       13.3603714673       23.0959120563
  H        -0.8096624101       12.0480418550       22.0621218391
  C         1.4343683510       13.0387345236       23.2162689871
  H         0.8283297811       14.3180686413       21.6158962568
  H         0.1214531406       14.7909747378       23.1357544203
  C         1.7415015209       11.7341993041       22.3790353672
  C         0.9491905385       12.2087752843       24.3500971451
  C         2.6842148369       13.8524144834       23.5743941711
  C         1.4601173401       10.5988815931       23.0908115711
  C         2.2049857775       11.4195719602       21.0748237618
  C         0.9443266840       10.8965044885       24.2968282232
  C         0.4527730529       12.7769056885       25.5271624455
  H         2.9986287497       14.3060199816       22.6450237926
  H         2.4495660640       14.6829104083       24.2377785280
  C         3.8469199705       13.0287088293       24.1303780633
  S         1.7801953571        9.1275209437       22.2829098185
  C         2.1725029371       10.0658276750       20.8683103332
  H         2.4375965228       12.1430407969       20.3083626775
  C         0.4608822977       10.2144103012       25.3871628120
  H         0.5351080230       13.8622815398       25.5659280101
  C        -0.0252481208       12.1241600567       26.5983340299
  H         4.0780645405       12.2837425718       23.3652478981
  H         3.5112763335       12.3438636207       24.9105148969
  C         5.1083408990       13.8158754707       24.4959437175
  C         2.6995116633        9.3774482279       19.6812223201
  C        -0.1218669634       10.7893038102       26.5669243999
  H         0.6115462546        9.1812008683       25.3023224403
  C        -0.3895338800       12.4513677728       27.8424907594
  H         5.7518378203       13.2608258670       25.1366621017
  H         4.6822525853       14.6776426003       24.9757668437
  C         5.9392545512       14.3486336298       23.2821046062
  C         2.7335204940        7.9989011538       19.4144466931
  C         3.1038473449       10.2842690794       18.5733626674
  C        -0.5696554484       10.0189078120       27.8236699840
  C        -0.7666698559       11.3494809641       28.6133496838
  S        -0.4600338307       13.9266010466       28.6536673051
  H         6.7685512158       14.8939947550       23.6814494425
  H         5.3509009550       15.0361392538       22.6747332573
  C         6.4643286578       13.2745108303       22.2535305561
  N         2.3331598367        6.9544850432       20.2424078899
  C         3.0681601369        7.5340276928       18.1579841484
  C         3.3744305063        9.8009222284       17.3140734963
  H         3.1563044007       11.3216874307       18.6598202162
  C         0.5793165019        9.1658740949       28.4688944349
  C        -1.9326406129        9.2880169236       27.6407564846
  C        -1.0797183348       11.7439093954       29.9308615209
  C        -1.0450437504       13.0892530331       30.0508190094
  H         7.5536132759       13.2049016896       22.4933871804
  H         6.0687105632       12.3038604215       22.4782866037
  C         6.1587683405       13.5915474831       20.7838110042
  S         2.5789107251        5.4903900309       19.5366658739
  N         2.9546583163        6.1520308216       18.0869367847
  C         3.4023283206        8.3424579649       17.0502239858
  H         3.6623696794       10.5557821565       16.5252864934
  H         0.8576711227        8.3957862218       27.8278371397
  H         0.1897095578        8.6413879085       29.2853659166
  C         1.7999401762       10.0292892952       28.9343118487
  H        -1.9108664889        8.4154059963       26.9577010548
  H        -2.2704013374        8.9676163622       28.6283780764
  C        -3.0081690123       10.2068672703       27.0800108428
  H        -1.3027249682       10.9840864920       30.6529587005
  C        -1.3371989081       13.8483185257       31.3439428604
  H         6.0383093716       14.6678319666       20.5830345630
  H         5.2811746937       12.9896342884       20.3810666619
  C         7.3699419356       13.2088484584       19.9588866078
  C         3.5743842561        7.7205793252       15.7916489327
  H         2.2760755165       10.5906250118       28.1484574641
  H         1.3895580139       10.8325016750       29.6119229913
  C         2.8561130498        9.2428783149       29.7437321198
  H        -2.7830652633       10.5850414676       26.0971482543
  H        -3.0586203183       11.1602174556       27.6612973189
  C        -4.4899746469        9.7839566216       27.1128793548
  C        -1.4684735143       15.2266912183       31.5136705433
  C        -1.8228706658       13.0937899864       32.5298723027
  H         8.1952901002       13.7150919354       20.3215274691
  H         7.4250770447       12.1438984164       20.0952956832
  C         7.2046038545       13.4960392297       18.5171310580
  H         3.5369999479        6.6713861049       15.8360801585
  C         3.8944961143        8.1206657058       14.5162870138
  H         3.0793225371        8.3497512676       29.2029772905
  H         2.3916148718        8.8715213638       30.6488030962
  C         4.1336127845       10.0568279127       30.2881598540
  H        -4.5432706122        8.7177005947       27.2206701544
  H        -4.9756603828       10.2204428746       27.9235003447
  C        -5.2390262658       10.2552705124       25.8467312328
  N        -1.1336349062       16.1600725843       30.5351823088
  C        -1.8419061605       15.8850528674       32.6845162735
  C        -2.1299898227       13.7239420514       33.7387438607
  H        -1.8550392851       12.0222503963       32.5100801873
  H         7.6041747714       12.8877208425       17.7767877115
  H         6.1200823554       13.6274377578       18.2039759814
  H         7.6691429966       14.4252257739       18.3419082999
  S         4.2233989889        9.7062883758       13.9604688856
  C         4.0825008034        6.9840573567       13.5361563549
  H         4.3264271345       10.7925618288       29.5250631657
  H         3.9349198126       10.5704661564       31.2275939946
  C         5.4315054524        9.2719076074       30.2969938252
  H        -5.1649179522        9.6001968876       25.0047599967
  H        -4.8032203529       11.2596570213       25.6176850444
  C        -6.6511085933       10.1916799726       26.2441734590
  S        -1.3454210396       17.6692904131       31.1239547510
  N        -1.8461408320       17.2768188313       32.5890861613
  C        -2.1380086836       15.1787930427       33.8673215761
  H        -2.3512376206       13.1304334271       34.5810916984
  C         4.4396263106        8.9877854189       12.3551987910
  N         4.4938444823        7.6277960781       12.3774373551
  O         4.0503506142        5.8169437035       13.7830062930
  H         6.2628061703        9.9924214142       30.3175237206
  H         5.5159064986        8.7178439020       29.3781733323
  C         5.5128856504        8.3279928412       31.4636667439
  H        -6.8199384879        9.2212604880       26.7470017377
  H        -6.7571484861       10.8709079255       27.1189091708
  C        -7.6040338037       10.6370045236       25.2092327298
  C        -2.3870482681       15.9680767258       35.0186282752
  S         4.9005081265        9.8788587242       10.8831835433
  C         4.6376067025        6.8596476168       11.1671605136
  H         6.3949840894        8.6088031871       31.9951845269
  H         4.7205582619        8.5734725778       32.1634605492
  C         5.6929737514        6.8334596539       31.1592002277
  H        -7.2544341299       10.5083170558       24.1723505859
  H        -7.7243166094       11.7453322644       25.3382662754
  C        -8.8829277647        9.9977701082       25.4768707540
  H        -2.3423395374       17.0565784922       34.9962978541
  C        -2.8057750432       15.5396844693       36.2579344089
  H         5.3734927540        7.3093407576       10.4809356966
  H         4.9893011715        5.8617998489       11.3615864719
  C         3.2316504628        6.8210711253       10.5231654848
  H         6.6130179135        6.5690298286       30.5806700383
  H         4.8899622760        6.5119903540       30.4659604892
  C         5.6890247891        5.7871487286       32.3055944983
  H        -9.5879420356       10.1124757412       24.5658524734
  H        -8.5806724283        8.9694870477       25.5548705831
  C        -9.6204228708       10.4843780001       26.7251602313
  S        -3.4059179459       13.9936411922       36.6280676680
  C        -2.9847805097       16.5707225871       37.3218259475
  H         2.8186561475        7.7845712320       10.2946813343
  H         3.2600901443        6.3689603644        9.5026115925
  H         2.6181462778        6.2503672221       11.2154447125
  H         6.5700378943        5.1622304914       32.2388198074
  H         4.8270022124        5.2399333377       32.0922291210
  H         5.6733541844        6.3337671123       33.1897210832
  H       -10.6203646941       10.2143566486       26.7187555963
  H        -9.7437028246       11.5827819388       26.7994661086
  H        -9.1495811699        9.9923833010       27.6376053334
  C        -3.8504744204       14.7297558987       38.2156123059
  N        -3.5662968570       16.0350043706       38.3737987471
  O        -2.7816580913       17.7773504107       37.1732925970
  S        -4.3866695369       13.8420652457       39.6194766012
  C        -3.9103492664       16.8198338175       39.6212463942
  H        -4.2381423779       17.8139224600       39.2919518344
  H        -4.7496128695       16.3932099845       40.1709719387
  C        -2.6478950144       16.8613816997       40.4951826257
  H        -2.7676441877       17.7148563208       41.1206163132
  H        -2.4803339598       15.9845002568       41.1180506367
  H        -1.7944361166       17.0159009563       39.9507578462
  H         7.4478413459       11.3583566451        3.2522215989
  C         7.9989909169       10.4087282750        3.2701738534
  H         7.3188983101        9.5399964339        3.4353099949
  C         9.1346402838       10.5497626760        4.4007062015
  C         8.6920096428       10.2088482153        1.9046601777
  C         8.5993445727       10.6701926359        5.8615754156
  H         9.8901616162        9.7829579934        4.3010704959
  H         9.5464563222       11.5340734548        4.2054156898
  H         8.1964173344        9.4107454161        1.3271078400
  H         9.7866920942        9.9041563906        2.0147983006
  H         8.5920214841       11.1162870554        1.3221478222
  C         7.9739878788        9.3359160688        6.3921289236
  H         9.3471850370       11.0746296067        6.5109984416
  H         7.8690922783       11.5386868164        5.8017308942
  C         6.9794105765        9.5811209992        7.6045598582
  H         8.7459244754        8.5679825472        6.5598140524
  H         7.4482741116        8.7612235311        5.6694734864
  C         5.7190204650       10.3513829085        7.2340914426
  H         7.5128277405       10.0432984307        8.4417978392
  H         6.7252854631        8.5867595674        7.9595096612
  C         4.4537803368        9.5223955570        6.8341194492
  H         5.4592589713       11.0436279247        8.0087592683
  H         6.0199605677       11.0260323460        6.4522718884
  C         3.1592814769       10.4789684594        6.7474279411
  H         4.2303912039        8.8966102694        7.7195202965
  H         4.5008897805        8.9426628829        5.9230408698
  C         3.5484166631       11.8023636429        6.0704519732
  C         2.6779988316       11.1528438719        7.9601558424
  C         1.8528831911        9.8528296475        6.0359111329
  C         3.2516309023       12.8723831354        6.8459588191
  C         4.0600984553       12.1248729164        4.8036292728
  C         2.7262146351       12.4833033823        8.0685976285
  C         2.1654336507       10.5561271316        9.0758818950
  H         2.3439426319        9.3958882447        5.1756575610
  H         1.5261500190        9.0902989948        6.7135755207
  C         0.7066326547       10.8417346491        5.6158086947
  S         3.4907031295       14.3254538052        6.0330479801
  C         4.0086197886       13.4830888219        4.5581766889
  H         4.2525007668       11.3235160676        4.1404710244
  C         2.4622169234       13.0819112395        9.2433883979
  H         1.9768899628        9.5137600026        8.9123881621
  C         1.7637489486       11.1741042731       10.2248746624
  H         1.1019834631       11.7875506914        5.1298280998
  H         0.2795431957       11.1807714040        6.5289976490
  C        -0.4353716722       10.3765953895        4.6902947236
  C         4.3988324026       14.1876556774        3.2874698273
  C         1.9886543490       12.4940369584       10.3853438588
  H         2.7198045404       14.1322269545        9.4189187434
  C         1.3301097047       10.8214622789       11.4448549044
  H        -1.3461272269       11.0013243506        4.7509593132
  H        -0.7688997823        9.4144041510        5.0767235611
  C         0.0439113420       10.0370328502        3.2576027184
  C         4.4348700700       15.5745302872        3.1620108576
  C         4.9350380029       13.4546073308        2.1754135288
  C         1.6909693806       13.2229842112       11.6207372289
  C         1.2865660274       11.9250234444       12.2917596560
  S         1.0684492297        9.3542187536       12.2792035801
  H         0.5890385246        9.0757415280        3.2362312283
  H         0.6485430477       10.8601162920        2.8444354712
  C        -1.0675742438        9.7380101452        2.3480868819
  N         4.0229029943       16.5431613019        4.1413949053
  C         4.7454311185       16.1687537532        1.9610266951
  C         5.1666420192       14.0664208992        0.9926651674
  H         4.8903699796       12.3752060135        2.2698741855
  C         0.3548913699       14.0744163321       11.5385423122
  C         2.9481984981       13.8956548072       12.2741681125
  C         0.7671532766       11.6367597248       13.6116841012
  C         0.6740693186       10.2392709446       13.7467184783
  H        -1.9836483120        9.5893126716        2.8941483395
  H        -1.3163013143       10.6350826643        1.8942215629
  C        -0.8139707309        8.8047404902        1.2440441315
  S         4.1678340805       17.9876000998        3.5138921420
  N         4.6936898481       17.5684989475        2.0081890312
  C         5.0514939818       15.4620699854        0.7664197285
  H         5.4027030421       13.3929461663        0.1977521463
  H         0.5349247773       14.9986916126       11.0165030878
  H         0.0490271752       14.3717697783       12.5824314365
  C        -0.8016108910       13.3931387691       10.8306705938
  H         3.7501006237       13.2488672834       11.9420713012
  H         3.1605168051       14.8628295294       11.8098887028
  C         3.0669845744       13.9281444426       13.8249681189
  H         0.7352889487       12.4782173613       14.3764884051
  C         0.4981987910        9.5142217544       15.0343032090
  H        -1.7177570184        8.6153904451        0.7113019461
  H        -0.4992476878        7.8591116775        1.6269761260
  C         0.0938790476        9.3044167189        0.1501364719
  C         5.2775587292       16.2505702972       -0.3801640215
  H        -0.4456470516       13.0032824768        9.8665671119
  H        -1.0845151844       12.5420599344       11.3889493280
  C        -2.1045584234       14.1528931748       10.6133605456
  H         3.0272916258       12.8572918987       14.1514204717
  H         2.1728399352       14.3399179069       14.3948255762
  C         4.2737521393       14.6512192568       14.2628423783
  C         0.3531755883        8.1422170965       15.2869148699
  C         0.1953325903       10.3820945765       16.2186988302
  H         0.7046763832       10.0269296183        0.6911236185
  H         0.8366908002        8.5641935812       -0.2619101767
  C        -0.6105733161        9.9286508680       -1.0248113706
  H         4.8525932741       17.2032171460       -0.3856798619
  C         5.6954935014       15.9148335793       -1.6855862605
  H        -2.0612125182       15.1169629078       10.1421139180
  H        -2.3246527196       14.5298006981       11.6348133776
  C        -3.2347584131       13.2442822724       10.0548391528
  H         4.4652496255       15.5253304421       13.5799917937
  H         3.9429028654       15.0465535037       15.2196564965
  C         5.4489197916       13.6681863445       14.5018277248
  N         0.5955191755        7.0843603636       14.3680996865
  C         0.0789117141        7.5936605331       16.4982762548
  C        -0.1086227345        9.8541299454       17.4752983459
  H         0.3090457795       11.4258887625       16.1252076733
  H        -1.6069784727       10.1461290968       -0.8199809057
  H        -0.5601689711        9.2607159576       -1.8950505075
  H        -0.1017278801       10.8424899104       -1.1935145831
  S         6.1737326932       14.3537126685       -2.1718713467
  C         5.7566578033       16.9610113293       -2.7556706864
  H        -2.8862367472       12.7493216386        9.1453657066
  H        -3.5058462016       12.4979523890       10.8160803962
  C        -4.4220724412       13.9864279708        9.5305703828
  H         5.5242626269       12.8399032356       13.7336032838
  H         5.4136412256       13.1623475467       15.4693990095
  C         6.7589528001       14.3814747493       14.4041712105
  S         0.3738857242        5.6934271983       15.0575002371
  N        -0.1109530177        6.2412765164       16.4596306963
  C        -0.1527678770        8.3543172790       17.6653713427
  H        -0.1766595684       10.5467007768       18.3288853823
  C         6.2755033967       15.0735209278       -3.7783118332
  N         6.1261693077       16.4224294681       -3.8892382470
  O         5.3816152171       18.1186410848       -2.5846462835
  H        -4.8350444245       14.5172231255       10.3539781413
  H        -4.1155166954       14.7314369312        8.7589603491
  C        -5.5515672769       13.0691487814        8.9276682613
  H         7.5659913671       13.7115689556       14.3397354376
  H         6.7992464107       15.0850239700       13.5836950322
  C         7.2068094646       15.1092951835       15.6793751826
  C        -0.4915537763        7.7020040890       18.8808892389
  S         6.6360241628       14.2593866302       -5.2647106119
  C         5.8617714959       17.1379175513       -5.1767953149
  H        -5.2057723792       12.8572528542        7.8818322567
  H        -5.6736991886       12.0854618825        9.3450964840
  C        -6.8637825401       13.7590494071        8.8877214127
  H         7.7870913340       14.4039421296       16.2242327893
  H         6.2588815977       15.2278741827       16.2025579467
  C         8.0627387397       16.3735405768       15.4625635747
  H        -0.2368427642        6.6168798194       18.9467223957
  C        -1.0374306928        8.0688813140       20.0884649890
  H         6.3282197033       16.7416054034       -6.0351245615
  H         6.2831053185       18.1365125637       -5.0778184373
  C         4.4028162002       17.3139723246       -5.4578027565
  H        -7.4633806084       13.4521194002        8.0364086110
  H        -6.7129513330       14.7698555887        8.7212883679
  C        -7.6647369114       13.6833561452       10.2031147584
  H         8.3040691822       16.7066572499       16.5335231903
  H         9.0397623331       16.1312570447       14.9682542300
  C         7.3877945131       17.5428998571       14.7522296236
  S        -1.6191043697        9.6671354315       20.4889565122
  C        -1.2187325899        7.0236752961       21.1086209775
  H         4.2669034374       18.3442315460       -5.3199469660
  H         3.8128615700       16.6944465117       -4.8119789190
  H         4.1426912252       17.0743606917       -6.4852674319
  H        -8.4939707580       14.3744548787       10.0393307014
  H        -8.0327904875       12.6972410964       10.4120376616
  H        -7.1483421392       14.1378914050       11.0285415825
  H         7.9560222172       18.4623334621       14.8070274872
  H         7.1277039842       17.3607898414       13.6775605932
  H         6.3706433248       17.6223830860       15.1200094648
  C        -1.9061519667        8.9450624181       22.0775949067
  N        -1.7925090088        7.5683951313       22.1465887164
  O        -0.9252837235        5.8055427490       20.9505074260
  S        -2.6773860227        9.7921598571       23.4068999576
  C        -2.2790295244        6.8183670302       23.3039489417
  H        -2.9200299404        5.9160087606       23.0152101559
  H        -3.0466893721        7.3611565123       23.9307005716
  C        -1.1101102001        6.4254125796       24.1807403394
  H        -0.5653465236        5.5773355900       23.8525506922
  H        -1.5141724630        6.2507238711       25.1558096515
  H        -0.3628152737        7.1986655350       24.2218943995
