352
i =
  H        -3.7068088646       15.0483981892       16.4978207728
  C        -3.4881844367       13.9511762962       16.5536095865
  H        -4.3899636403       13.4604180593       16.9291825386
  C        -2.3687599714       13.6608319707       17.6227243638
  C        -3.0189615044       13.4883418850       15.1833249039
  C        -2.9069823399       13.8724801950       19.0045693462
  H        -1.9606957552       12.6347028293       17.5252954154
  H        -1.7208528914       14.4841060850       17.3827322642
  H        -3.9208647046       13.4829441594       14.5695904682
  H        -2.2950093579       14.1432317783       14.6771668580
  H        -2.7232319466       12.4882036596       15.1550744240
  C        -1.7496541483       13.6350457616       19.9800490762
  H        -3.8013133072       13.2875837035       19.2123555792
  H        -3.2849635411       14.8925893862       19.1307038854
  C        -2.2895976337       13.4279940771       21.3957423111
  H        -1.1931568834       12.8022252107       19.6065478868
  H        -1.1451727786       14.5080189353       19.9011507868
  C        -1.3298760872       12.7773702818       22.4118244430
  H        -3.2125844465       12.8472224671       21.3267329640
  H        -2.5951835552       14.4260452605       21.7136468617
  C        -0.2115667182       13.8263003816       22.6239724887
  H        -1.8938702968       12.4291028940       23.2095147180
  H        -0.9756505040       11.9035022157       21.8981359576
  C         1.0734818174       13.2401156065       23.2777077287
  H         0.0636795496       14.3253433651       21.7155541798
  H        -0.5448494151       14.6635632831       23.2167059138
  C         1.4492327179       11.9158814650       22.5517041663
  C         0.7256867083       12.4730015886       24.5186891331
  C         2.1773512071       14.2426189465       23.4133950492
  C         1.2838929932       10.7792566823       23.3713901778
  C         1.9282678601       11.5178612063       21.2994313140
  C         0.8287368821       11.1295819449       24.6524348839
  C         0.3381469546       13.0554216823       25.6994664231
  H         2.2795199195       14.8466199652       22.4862741951
  H         1.9292074387       15.0602042545       24.1076488278
  C         3.5025822779       13.7231964081       23.8781098141
  S         1.8388197536        9.3118107011       22.6425251916
  C         2.1167584591       10.1226355181       21.1876043602
  H         2.1136320697       12.2201172529       20.4579305291
  C         0.6022901665       10.5514569925       25.8630672837
  H         0.3679086974       14.1961456364       25.7779834846
  C         0.1015448765       12.4625235738       26.9518254059
  H         3.9471183528       12.9996354543       23.1547783336
  H         3.3289669540       13.1385061266       24.7717863497
  C         4.5454526848       14.8160265324       24.0270712146
  C         2.4733834267        9.3274499258       19.9848804702
  C         0.1198030523       11.1491367724       26.9963464390
  H         0.4690136328        9.5665530475       25.8399536447
  C        -0.3667893565       12.8966102997       28.1416917469
  H         5.2606430475       14.4309044256       24.7136955368
  H         4.2040133994       15.7420466209       24.5731340295
  C         5.2623212416       15.2503374347       22.7837413710
  C         2.5565872714        7.9311412525       19.8116314420
  C         2.6837167344       10.0344549605       18.6912537834
  C        -0.3891303883       10.4245050412       28.2287219884
  C        -0.7009120576       11.7996002343       28.9162674858
  S        -0.6215024497       14.3943294572       28.9082176077
  H         5.9047277269       15.9886692853       23.2257409660
  H         4.6202477862       15.7046463162       22.0365437639
  C         6.0090443259       14.1987239026       22.0233572997
  N         2.4437084570        6.9974539156       20.8357490584
  C         2.8425804379        7.3133684364       18.5505542704
  C         3.1732150221        9.4486775285       17.4978704805
  H         2.5580413423       11.1504617263       18.6537202038
  C         0.8609801705        9.6683167112       28.8476630926
  C        -1.6254378952        9.5456787391       28.0602475210
  C        -1.2746828441       12.1287018335       30.0818729472
  C        -1.2010550229       13.5016839452       30.2465890709
  H         7.0786257507       14.5526951744       21.8214745278
  H         6.2091635402       13.3969710644       22.6944577475
  C         5.4626275666       13.7118294085       20.6783634137
  S         2.5669706038        5.4915464634       20.2129666599
  N         2.9394667432        5.9422319533       18.6781068577
  C         3.1706987500        7.9614822002       17.3508738879
  H         3.3727178902       10.0457274227       16.6579091671
  H         1.4440364317        9.1194229083       28.0804227322
  H         0.5113158655        8.8617925405       29.5124636447
  C         1.7562819935       10.5549544683       29.7237465790
  H        -1.3211396297        8.7672816691       27.3983361729
  H        -1.8474796441        9.0231097846       28.9847253517
  C        -2.8892712172       10.2708784794       27.5028010549
  H        -1.7855636168       11.3708820212       30.7000463053
  C        -1.5323318398       14.1000230024       31.5631094791
  H         4.4558622814       14.0406198972       20.5096776817
  H         5.3849677853       12.7035601929       20.7245221072
  C         6.3577953850       14.0049104777       19.4111787965
  C         3.3119096125        7.2001997386       16.1426209786
  H         2.0161405331       11.5077659980       29.1803494251
  H         1.2583497566       10.7840967852       30.6506858669
  C         3.0704296649        9.7666337035       30.0734814495
  H        -2.5349384459       10.7588751461       26.5822756125
  H        -3.1635060199       11.1098876506       28.1849318230
  C        -4.0388257100        9.3785954657       27.1444535597
  C        -1.5934207530       15.4907347794       31.8640997026
  C        -1.7571705047       13.2320527498       32.7327596898
  H         5.8754181152       13.7235099679       18.5093045723
  H         6.4142930220       15.0572722200       19.4481788734
  C         7.7650036665       13.4469604696       19.4780026778
  H         3.0761397280        6.1421389444       16.2683418646
  C         3.5913673333        7.5042447391       14.8389600939
  H         3.4145570425        9.0590747761       29.3771664111
  H         2.8824870841        9.2441059671       30.9526947683
  C         4.3419603215       10.6494389688       30.5495009803
  H        -3.8748961237        8.9689632926       26.1555214756
  H        -4.0884687004        8.5720871509       27.8495157649
  C        -5.3902343878       10.1131980405       27.1921978443
  N        -1.3218544115       16.4741767547       30.9531059098
  C        -1.8785403471       16.0006530455       33.1292770413
  C        -2.1619014623       13.7421688666       33.9754351099
  H        -1.7309640607       12.1362611850       32.6993088096
  H         7.8944048304       12.4683464681       19.9671132239
  H         8.0749143794       13.2257792162       18.4753416727
  H         8.3615697054       14.1519465805       20.0053191600
  S         3.9316608241        9.1009861110       14.3589387498
  C         3.7322165725        6.4291037516       13.8034317116
  H         4.4655027822       11.3545216705       29.6843363481
  H         4.2220310716       11.1672064880       31.4469324145
  C         5.5824143641        9.7859133252       30.4505504650
  H        -5.4869871028       11.0042631830       26.5892193821
  H        -5.6972514592       10.2913698713       28.2240786927
  C        -6.4874463438        9.2213617822       26.4642421128
  S        -1.3615495634       17.9507517269       31.6836084707
  N        -1.8960759113       17.4024789022       33.1146477205
  C        -2.1213043275       15.2216938619       34.2561712217
  H        -2.3348744348       12.9198288969       34.7068682874
  C         4.2454697740        8.4247137249       12.7526254143
  N         4.1868187801        7.0668003717       12.6972611317
  O         3.5778118514        5.1974201863       13.9906485541
  H         6.4285985061       10.4493218720       30.4803861544
  H         5.5232864996        9.2859632051       29.4661206273
  C         5.7090233401        8.6822131982       31.4382442297
  H        -6.0544532602        8.4404724136       25.9358636071
  H        -7.1638537991        8.8384270312       27.2122134105
  C        -7.2659789633       10.2333065135       25.5314671799
  C        -2.5462330912       15.8507951000       35.4976833557
  S         4.5283017454        9.2699892829       11.2262033637
  C         4.1711691015        6.3303581514       11.4567989002
  H         6.5286435790        9.0228917029       32.0604052754
  H         4.8722516988        8.6952750570       32.1077402654
  C         5.9858300029        7.3151762624       30.6709345023
  H        -6.5577882499       10.5199900005       24.7224483685
  H        -7.3260074995       11.1939029959       26.0276033935
  C        -8.5766888655        9.6931256841       24.9957147340
  H        -2.5191457899       16.8824152957       35.3249275052
  C        -3.2294391163       15.4576226989       36.6035299262
  H         4.8359767682        6.7426720745       10.7171134890
  H         4.6046442959        5.3308307365       11.6612215642
  C         2.7892365141        6.3300139998       10.8463303468
  H         6.9294460903        7.4356593470       30.1882260509
  H         5.2908717861        7.0943530542       29.8090854626
  C         5.9410537062        6.1661016504       31.6732592866
  H        -8.9093837531       10.3231107131       24.1765589614
  H        -8.4271315018        8.6613637790       24.6242607225
  C        -9.6469671926        9.6996649555       26.1195253844
  S        -3.8393175027       13.9144652097       36.8203905770
  C        -3.4657422120       16.4033817228       37.7082354453
  H         2.6816890707        7.0187247715       10.0489883948
  H         2.3450829859        5.3493376518       10.5191706882
  H         2.0534435049        6.7337456435       11.5965695559
  H         6.6442481169        6.2498885215       32.5330471922
  H         6.2361155086        5.2449334666       31.1396354494
  H         4.9129815319        5.9263684961       31.9924566037
  H        -9.5105103925        8.8483637803       26.8038549888
  H       -10.7329330700        9.6270330996       25.9185138745
  H        -9.4076390221       10.6104956113       26.7092213403
  C        -4.4356184367       14.4445267896       38.3854178634
  N        -4.2627392315       15.7945660882       38.6056524142
  O        -3.0033659438       17.5450612652       37.7804459231
  S        -5.3116140347       13.4845399385       39.5467868877
  C        -4.5730982881       16.5134016282       39.7984713335
  H        -4.6105098888       17.5941769161       39.6276953347
  H        -5.5719590021       16.2019981749       40.1013094998
  C        -3.5187322859       16.2371059537       40.8308016033
  H        -2.7619294123       15.6403162323       40.4190851844
  H        -3.2948924252       17.1731848171       41.2810145410
  H        -3.9977049984       15.7074130291       41.6259940643
  H         7.6311389819       11.7076566994        3.1315833932
  C         8.0225373935       10.7035731424        3.1561439952
  H         7.2007659005        9.9862762011        3.1262314481
  C         8.7271363978       10.5274064132        4.4839723722
  C         8.8903245128       10.5706938043        1.8975246185
  C         7.8760904937       10.7360288929        5.7032433128
  H         9.1746305664        9.5695904157        4.5704594929
  H         9.5339732373       11.2165272167        4.4376045717
  H         9.7080042282       11.3513731159        2.0001219815
  H         8.4628638077       10.7318647270        0.8775496523
  H         9.4147999541        9.6256892966        1.8761096577
  C         6.8570004556        9.5829554134        6.0268061656
  H         8.5330460476       10.9085450282        6.5859000645
  H         7.4280278166       11.6971516023        5.5426679888
  C         6.2936411106        9.7778226034        7.4484408524
  H         7.3790524634        8.6393546605        5.9815437312
  H         6.0259700261        9.4416127694        5.2800981788
  C         5.0505692308       10.6017442461        7.4330791344
  H         7.0251549344       10.2684630931        8.1068769179
  H         6.1251764585        8.8463025326        7.9019133227
  C         3.8370563773        9.7609422820        6.9081635092
  H         4.7215824732       10.9716913665        8.4072895899
  H         5.3060015208       11.5407254519        6.8386783874
  C         2.5600669388       10.6222091153        6.6268833515
  H         3.5404239077        9.0460045477        7.7289648952
  H         4.0850029835        9.1454090766        6.0109316118
  C         2.8617868653       11.9365642334        5.9350680528
  C         2.0042958015       11.2667214864        7.8151419853
  C         1.4519002617        9.9511587169        5.8313576226
  C         2.5916266582       13.0052103712        6.7750917837
  C         3.4717892784       12.3176548834        4.7312009276
  C         2.0784554858       12.6098834175        7.9683874550
  C         1.5290986005       10.6177177904        8.9864388690
  H         1.8488700528        9.7147827281        4.8641781000
  H         1.2707500929        9.0246162979        6.3095828380
  C         0.1852261579       10.8710255306        5.6753465873
  S         3.0280873159       14.5372641566        6.0588113421
  C         3.5762157804       13.6712214126        4.7135029455
  H         3.6271299045       11.5863869686        3.9541741851
  C         1.7261089233       13.2130452032        9.1455257076
  H         1.4990172667        9.6005571576        8.9136275424
  C         1.2299191016       11.2028471224       10.1737902273
  H         0.5484636751       11.7657541526        5.1617261937
  H        -0.3257793948       11.1390484226        6.5860008153
  C        -0.9051371689       10.2092679018        4.9022767823
  C         4.1586961893       14.4103546229        3.5245097099
  C         1.3366914913       12.5436764361       10.3107263525
  H         1.7674484483       14.2799706524        9.1282430964
  C         0.9712463628       10.7649096470       11.4518597157
  H        -1.7328155461       10.8192806871        4.8768747938
  H        -1.2542796858        9.3115239469        5.4513450672
  C        -0.3537889763        9.9446939133        3.5069066827
  C         4.1273115705       15.8303259857        3.2808624213
  C         4.6628410806       13.5119149034        2.4476430961
  C         0.9612885607       13.1919033794       11.6049654092
  C         0.7861730977       11.8200083154       12.2453744152
  S         0.8520089963        9.2850483959       12.2709455891
  H         0.1769786124        9.0431507766        3.4607321751
  H         0.3796446205       10.7303691445        3.3567068387
  C        -1.4391993755       10.1229390369        2.4743363523
  N         3.7683188175       16.8740390221        4.1591076546
  C         4.5415878421       16.2937537130        2.0341358617
  C         4.8380814558       14.0183787726        1.1876194584
  H         4.7473707999       12.4498019334        2.5336302519
  C        -0.2651734512       14.1252119418       11.3385139396
  C         2.1940164943       13.9512488832       12.1877566202
  C         0.4011573162       11.4522085913       13.5523601896
  C         0.4176641124       10.1150425695       13.7070562002
  H        -2.2951794718        9.6248326201        2.9277052729
  H        -1.5987076335       11.1798680557        2.3045511659
  C        -1.0649962065        9.5083358080        1.1568987528
  S         3.8876354633       18.2740637371        3.2991226960
  N         4.3572840318       17.6435912916        1.8915137910
  C         4.8840135287       15.4838998766        0.9114492673
  H         5.0268840382       13.3985603644        0.3024123034
  H         0.0101225636       14.7922577719       10.4897980934
  H        -0.2908982659       14.8059745780       12.1616751631
  C        -1.6065770858       13.3981216043       11.1515127777
  H         2.6525885561       14.6154035278       11.4189775444
  H         2.0265191139       14.6175099295       13.0608824376
  C         3.3886535144       13.0145194891       12.6072754498
  H         0.2676742024       12.1887987168       14.3006312870
  C         0.2047519778        9.3144325294       14.9884294954
  H        -1.1031773142        8.4736674742        1.1226969019
  H        -0.0711387460        9.8097198071        0.9625558506
  C        -2.0084383781       10.0203557810       -0.0099016413
  C         5.2880404593       16.1619917307       -0.2998678536
  H        -1.5357092971       12.8548171910       10.2634796345
  H        -1.6338937145       12.7455224149       11.9759764847
  C        -2.8105029868       14.3000919202       11.4380547044
  H         3.8419617630       12.4661576928       11.7793636801
  H         3.1506171973       12.1606245657       13.2770747479
  C         4.5628937078       13.8609888636       13.0798185414
  C         0.0795069873        7.9403549751       15.1736680149
  C        -0.0722856070       10.0293348138       16.2248701327
  H        -2.9518775882        9.5882429536        0.2177734941
  H        -2.2365566382       11.1069488368        0.1740550790
  C        -1.4785136321       10.0067824640       -1.4284378238
  H         5.2107088695       17.2127998178       -0.2832000911
  C         5.5382758366       15.7077587478       -1.5646342551
  H        -2.6715155675       15.2161257709       10.9200367198
  H        -2.8692253696       14.4233160037       12.5275066259
  C        -4.0669917256       13.5454278237       10.9464038559
  H         5.0771608780       14.3721357907       12.3148902810
  H         4.1679747283       14.5588232812       13.8505968011
  C         5.6914852385       13.0279183668       13.7543303816
  N         0.3476217400        6.9483464722       14.2327380552
  C        -0.2086024043        7.2843394636       16.3975419270
  C        -0.3855477445        9.4197399897       17.4137235114
  H        -0.1137333831       11.0548397069       16.2076362677
  H        -1.1494863345        8.9891864281       -1.7251455579
  H        -0.7564847019       10.7804300053       -1.7636969020
  H        -2.2923033659       10.1701862950       -2.0588222591
  S         5.9614798066       14.0451292344       -2.0613196630
  C         5.5565816709       16.6574467402       -2.6874916091
  H        -3.6828665040       12.8205791354       10.2201084285
  H        -4.5686864640       13.0908301084       11.7878855129
  C        -5.1090199620       14.3917034278       10.1916895106
  H         5.9795041931       12.2694930257       13.0370264561
  H         5.3905977927       12.6219698325       14.6060743623
  C         6.8988461529       13.9033392564       13.9692710926
  S         0.3567882518        5.4880676720       14.8445665621
  N        -0.0423395318        5.8794921066       16.3464795180
  C        -0.4461525599        7.9662828623       17.5654082632
  H        -0.5852854387       10.0097616785       18.2560116773
  C         6.1084184753       14.7077209486       -3.6758007072
  N         5.9850859041       16.0303286541       -3.8186131110
  O         5.3431019972       17.8648668385       -2.5714582369
  H        -5.7482161858       14.9619687795       10.8725117686
  H        -4.6245132213       15.1495456359        9.6522730823
  C        -5.8158490830       13.3821110305        9.1252908751
  H         7.6441827078       13.3302764251       14.4609917063
  H         7.2692441994       14.3131016277       13.0095464669
  C         6.5445443186       14.9606556027       14.9731481593
  C        -0.6691958637        7.2704641727       18.8182879134
  S         6.4410143041       13.7543539529       -5.1379594223
  C         6.2979180907       16.8356441095       -5.0620966916
  H        -5.2869989173       13.5207344883        8.1587240129
  H        -5.6799578338       12.4235543428        9.6674992169
  C        -7.3849076095       13.4786419715        9.0222163923
  H         7.0775316927       14.8861497325       15.8891221266
  H         5.6080812285       14.8194173201       15.4603061165
  C         6.9842478201       16.3470139486       14.5973639564
  H        -0.1866853158        6.2416237079       18.8811550350
  C        -1.2245460771        7.5933056786       20.0359403012
  H         7.0396442280       16.3359339921       -5.6372115839
  H         6.9109313082       17.6631679479       -4.7817273864
  C         5.0766491538       17.2490373672       -5.8753665473
  H        -7.8415996746       13.2514916099        8.0215586498
  H        -7.6311313543       14.4980932132        9.2801260411
  C        -8.0146104453       12.6705137593       10.0739731589
  H         6.2282500970       16.6649945922       13.8548352582
  H         6.8042814383       16.9947072255       15.4591300064
  C         8.4085140698       16.4798242306       14.1823284243
  S        -1.8460595965        9.1686160552       20.3782979534
  C        -1.2354484043        6.6164013283       21.1744278892
  H         4.4867054149       17.9022583947       -5.2555980048
  H         4.4513713185       16.4611366085       -6.1669671744
  H         5.3592314628       17.7708829039       -6.7226173413
  H        -7.5982081084       11.6882531956       10.1184198029
  H        -7.8630705066       13.0356305979       11.1299720172
  H        -9.0820982615       12.5679420404        9.9519053265
  H         8.5611590887       17.5378633782       14.0377682891
  H         9.0763217910       16.0690542136       14.9370173392
  H         8.7392046295       15.9494921625       13.2105894900
  C        -2.0516341414        8.6167682482       21.9913613261
  N        -1.7933852976        7.3170920459       22.1916412158
  O        -0.8419195929        5.4494525851       21.1056369181
  S        -2.9862930988        9.4333549339       23.2067438544
  C        -1.8049412419        6.7237333124       23.5200676854
  H        -1.9956347582        5.6043398994       23.4485928737
  H        -2.5787221945        6.9851520202       24.1430395647
  C        -0.5228953537        6.9898996899       24.3395701528
  H         0.3386256479        6.9858744779       23.7173327828
  H        -0.4304026950        6.2138126508       25.0814769980
  H        -0.6654825526        7.9537444401       24.8350793813
