352
i =
  H        -3.3557542896       13.0080289908       16.6351861628
  C        -2.5920513141       13.7192403736       16.8310306718
  H        -1.7221222865       13.2743948791       17.2943526646
  C        -3.1052574648       14.7841324181       17.7896722627
  C        -1.9383057536       14.1572774675       15.4661115499
  C        -3.5768370616       14.1829273229       19.1652006909
  H        -2.3529090201       15.5590798935       18.0337659449
  H        -3.9949721313       15.2969786468       17.3616634918
  H        -0.9098138384       14.5054753679       15.4998612875
  H        -1.8356277005       13.3770288568       14.6806201611
  H        -2.4472185799       14.9844716383       14.9361546260
  C        -2.3931997464       13.6138688504       19.9478580837
  H        -4.2813548968       13.3311023662       18.9825655474
  H        -4.1162886968       14.9287680551       19.7282014691
  C        -2.7805109810       13.5069915408       21.3718039801
  H        -2.2173628786       12.6601357789       19.4329504010
  H        -1.5350679487       14.1893232210       19.7946649718
  C        -1.6527751166       12.8937272558       22.2688256971
  H        -3.6796602554       12.9185959586       21.5887600984
  H        -3.0019064521       14.5406514309       21.7329200024
  C        -0.4694723695       13.7934780973       22.6841220616
  H        -2.1727377886       12.3898395474       23.0706023346
  H        -1.2619883078       12.1105522925       21.6935294988
  C         0.7493330076       13.0225595634       23.3527988799
  H        -0.0749149402       14.3247414997       21.7761816748
  H        -0.8597618507       14.4621690959       23.3455284497
  C         1.1348692533       11.7316675631       22.6209577442
  C         0.4137247424       12.2700855190       24.5995787236
  C         1.9628889637       14.0319990126       23.5704865588
  C         1.0682643903       10.6082464323       23.4382492874
  C         1.6118467006       11.3723802803       21.3324822640
  C         0.5018623100       10.9225943974       24.6537500275
  C        -0.1216396809       12.8307809337       25.7378445175
  H         2.2391161177       14.3250410296       22.5376287288
  H         1.7124434000       14.8636424902       24.1864132907
  C         3.1965499218       13.2582593970       24.1608522741
  S         1.4968743092        9.1242335589       22.6793359835
  C         1.9154824145       10.0276886895       21.2457159350
  H         1.7506712632       12.1069871184       20.5151800087
  C         0.0313069893       10.2446878592       25.7692898573
  H        -0.2454605862       13.9200271509       25.7833434975
  C        -0.4223450292       12.1866919285       26.9024685913
  H         3.4690723331       12.5717157093       23.3582271792
  H         2.9317200905       12.6184980731       25.0616330552
  C         4.4648146460       14.0154131596       24.5885399130
  C         2.4799299062        9.3800928039       19.9572992433
  C        -0.4366763910       10.8627611091       26.9575301996
  H        -0.0072757736        9.2272630405       25.5882572548
  C        -0.7787719400       12.5732424995       28.0962550386
  H         5.2490941614       13.4002439480       25.0845202986
  H         4.3247848868       14.7807729290       25.3276917109
  C         5.1554361726       14.7213946191       23.4035497649
  C         2.4705214510        7.9868815168       19.6244317323
  C         2.8555012756       10.2695848692       18.8473911092
  C        -0.8579786804       10.1382952278       28.1738477084
  C        -1.0919843632       11.4728160604       28.8629729754
  S        -0.8753214546       14.1341384032       28.8438207044
  H         5.8287162737       15.4230001337       23.8514971107
  H         4.3501889213       15.3083315267       22.8308715593
  C         5.9223613858       13.6799861496       22.5502937218
  N         2.0718774252        6.9591546736       20.4759045496
  C         2.7901220564        7.4753315111       18.3728071886
  C         3.2269581590        9.7716773715       17.5972291481
  H         3.1146886202       11.3257321248       19.0345620626
  C         0.1673584605        9.3171869742       29.0097606899
  C        -2.1792690068        9.3620186621       28.0873166745
  C        -1.4805567451       11.9454504956       30.1554483521
  C        -1.4056970422       13.3273541330       30.1985286148
  H         6.9992213968       13.9725312353       22.4641673569
  H         5.9218295754       12.7963021157       23.1665792954
  C         5.1696599356       13.3517795664       21.2818747088
  S         2.1497757423        5.5350816249       19.6962310383
  N         2.6132490451        6.0983231407       18.2248620265
  C         3.1305228707        8.3494216497       17.2865437810
  H         3.5680820009       10.5145871445       16.9395425887
  H         0.4381903755        8.3901750051       28.4354371917
  H        -0.4060815415        8.9499921576       29.8934523842
  C         1.4957268024        9.9763610433       29.3380364036
  H        -2.0363734060        8.5715590285       27.2787183495
  H        -2.3982439576        8.9276667452       29.0264097205
  C        -3.3864198852       10.0874070943       27.6316256512
  H        -1.7008875352       11.3025514580       30.9733117255
  C        -1.7131460688       14.2346432862       31.3726054084
  H         4.0985806436       13.5419699982       21.4273181661
  H         5.3262624324       12.3113384183       21.1005978816
  C         5.6083688679       14.2186591335       20.0880042334
  C         3.4767205301        7.7378487547       16.0129936684
  H         1.7217664883       10.7068754592       28.5872155287
  H         1.5545865650       10.5952516411       30.2657317725
  C         2.6293131934        9.0408933220       29.4705532788
  H        -3.2501612292       10.6680129065       26.6822710166
  H        -3.6549850503       10.7080420793       28.5404930259
  C        -4.5529506063        9.1802106252       27.2487473447
  C        -1.7182604752       15.6555124522       31.4520289566
  C        -1.8502823799       13.5550140242       32.7038533483
  H         4.7222507723       14.2128267113       19.4716462574
  H         5.6875031864       15.1989939458       20.5844008634
  C         6.9081434274       13.7141706198       19.3219705343
  H         3.3131189481        6.6586285099       15.9645107379
  C         3.8121418813        8.2479371790       14.7872416002
  H         2.7053076998        8.3882562878       28.5789802052
  H         2.4091899426        8.3235300160       30.2049202415
  C         4.0315254387        9.7662404060       29.7310374446
  H        -4.1704304906        8.7283652330       26.2899819985
  H        -4.6069392169        8.3937596963       28.0572287268
  C        -5.9175349941        9.8512388367       26.9721994581
  N        -1.4539247170       16.5369207822       30.4369781187
  C        -1.9432804414       16.3140799906       32.6946034094
  C        -2.0695541397       14.2213929892       33.8996471217
  H        -1.7819755870       12.5226435590       32.8126771279
  H         6.8740969360       14.2275506045       18.3590096261
  H         7.7812049785       13.9545815803       19.9177077468
  H         6.8211067327       12.6203549072       19.1364816197
  S         4.0156493021        9.9245810179       14.3347576585
  C         3.8212635772        7.3455852732       13.6325363905
  H         4.4041822392       10.3979990890       28.8895669961
  H         3.8785078812       10.3696282362       30.6101991456
  C         5.1155526871        8.7846113402       30.0397780256
  H        -5.9996310155       10.7964268659       27.5328878841
  H        -6.6941703668        9.2496143947       27.3564621702
  C        -6.0671708579       10.1108978562       25.4746399681
  S        -1.4958031389       18.0475536355       31.0385186149
  N        -1.8013687772       17.6995555420       32.5630669738
  C        -2.2348972672       15.6522923139       33.9190581262
  H        -2.1494388440       13.6196403310       34.7525635826
  C         4.2915292390        9.3325138399       12.7313168081
  N         4.2023646493        7.9945205932       12.5271353652
  O         3.7408401560        6.1277007480       13.7644997700
  H         6.0269953330        9.3969987503       30.1918878759
  H         5.2954042351        8.1490943088       29.1924082557
  C         4.9652542949        7.9718155683       31.3399870747
  H        -5.2058504399       10.6726982456       24.9959240550
  H        -6.0035474695        9.0873159137       25.0507843611
  C        -7.3966482446       10.7717244306       25.1659550780
  C        -2.6065589840       16.3345815840       35.0652856651
  S         4.6579487808       10.4540456387       11.4527743625
  C         4.3922796266        7.2015471378       11.3278540370
  H         5.6200869432        8.3785084596       32.1169812451
  H         3.9834559876        8.0112797269       31.7559467123
  C         5.4155013294        6.5149288605       31.1660035043
  H        -7.3708507934       11.3695024655       24.2759108438
  H        -7.6104049109       11.4546880104       25.9431978514
  C        -8.5441003344        9.8148973257       24.9525120207
  H        -2.5170187032       17.3707790333       34.9075429261
  C        -3.0997642266       15.9665689384       36.2953102349
  H         5.0365090338        7.8170135069       10.7069251339
  H         4.9242507789        6.2525867606       11.4234420613
  C         3.0587132852        6.8263410838       10.6817513108
  H         5.0777421616        6.0824661054       30.2636758198
  H         4.8436503813        5.9539118669       31.8397201774
  C         6.9302648964        6.3744169126       31.4001065243
  H        -9.1480243127       10.1855776695       24.1891144671
  H        -8.2172266038        8.8639001498       24.6408303204
  C        -9.3313855924        9.6054666529       26.2420877227
  S        -3.7199548647       14.4092459152       36.8747074989
  C        -3.0087514455       17.0613773326       37.3258996753
  H         2.4417992818        6.1966188611       11.4189717184
  H         2.4894339387        7.7018280355       10.5687763952
  H         3.2402223384        6.4070092163        9.6937748908
  H         7.0916914124        6.4989231253       32.4702201592
  H         7.5779979206        6.9434702786       30.7357955452
  H         7.0818648035        5.3433251409       31.2595542535
  H        -8.7523119724        9.0763209388       26.9824364807
  H       -10.2152170981        9.0421848247       26.0350119647
  H        -9.6039136380       10.6112199324       26.5861854679
  C        -3.8710482541       15.3132252954       38.3644948543
  N        -3.6160795110       16.6038262310       38.4443656138
  O        -2.6451523283       18.2068891313       37.1800169383
  S        -4.4777886738       14.5046122451       39.8190230768
  C        -3.7209252510       17.4245784613       39.6073930242
  H        -4.1027070579       18.3181611234       39.2409665630
  H        -4.4629449501       17.0429581603       40.3275566625
  C        -2.3845135706       17.5479569058       40.3306306752
  H        -2.3551544420       16.8852662155       41.1764585743
  H        -1.6014425791       17.2325939073       39.7043433069
  H        -2.1235671011       18.4306999634       40.8935429844
  H         7.0297013865       11.0203928361        3.5134664976
  C         7.8443307602       10.3230761791        3.5759020683
  H         7.4821401354        9.3902232309        3.7305807083
  C         8.6976564239       10.7541228591        4.7332918647
  C         8.6049716869       10.5355499938        2.2337554187
  C         8.0161514790       10.9129161374        6.0643163578
  H         9.5112000605       10.1009283724        4.8809859175
  H         9.1265418392       11.7560302222        4.5366919635
  H         9.4635679947       11.1200164510        2.4192132534
  H         7.9744093109       10.9507205949        1.4180219581
  H         9.0850087492        9.6551453701        1.8620545905
  C         7.5307083984        9.5997055514        6.6408459929
  H         8.7663137329       11.3681987163        6.7513716304
  H         7.2156013910       11.5948363575        6.0101607320
  C         6.6378988259        9.7269574946        7.8450729989
  H         8.4358698699        8.9996903529        6.8183452012
  H         6.8997754213        9.0758678772        5.9098986665
  C         5.3241301934       10.5688558703        7.8542588346
  H         7.2829732260       10.3159714070        8.5216004953
  H         6.4837354382        8.7364969900        8.2514954027
  C         4.0741644754        9.8750371640        7.1960751215
  H         5.1146736454       10.7034702493        8.8804247810
  H         5.4547843939       11.5639416069        7.4122953373
  C         2.8347355357       10.7522917711        6.9418380009
  H         3.6741938075        9.0961380922        7.7867256743
  H         4.3375848026        9.4016258766        6.2514444126
  C         3.0905027695       12.0601625814        6.2585508769
  C         2.4648313772       11.5659856990        8.2263316846
  C         1.7180295723       10.0119278028        6.2114740671
  C         2.9026927450       13.2016659566        7.0100356099
  C         3.6596436889       12.3201757758        4.9949115642
  C         2.4190917899       12.9014426275        8.3045506514
  C         1.9835283909       10.9732096152        9.4164477163
  H         2.1315836039        9.8786113855        5.2433128133
  H         1.5016043811        9.0544123286        6.7078076156
  C         0.3729094254       10.8024014797        6.0271628029
  S         3.3169135352       14.6865979382        6.0841364005
  C         3.8370794364       13.6985067357        4.8088866460
  H         3.9909981415       11.5472255070        4.3635598595
  C         2.1347368370       13.5326630320        9.5077812820
  H         2.0044525238        9.9178626688        9.4733807380
  C         1.6054564062       11.5809847563       10.5652143439
  H         0.4253198531       11.8317396569        5.7179736330
  H         0.0770851164       10.8062366973        7.0814521322
  C        -0.6141273950        9.9645844253        5.1546752497
  C         4.1724456567       14.3776807801        3.5215653923
  C         1.7129483282       12.9206048791       10.6912603350
  H         2.0769840332       14.6098887341        9.4312409504
  C         1.2227582802       11.2097368021       11.8525971143
  H        -1.5749972322       10.4263897947        5.3947779260
  H        -0.6410928926        9.0121601859        5.5787113711
  C        -0.3527492054        9.9304971415        3.7071061815
  C         4.2976347864       15.7783605132        3.2828020338
  C         4.3788019767       13.5461235226        2.2751274540
  C         1.2382331872       13.6327751642       11.9479920832
  C         0.9870178112       12.2749008289       12.7099832109
  S         1.0566491542        9.6633860948       12.6201594172
  H         0.3454171559        9.1661217770        3.5139603272
  H         0.1357973920       10.7450888595        3.2786366053
  C        -1.6401951766        9.7501914739        2.8970716898
  N         4.0626005844       16.7575382586        4.2056056076
  C         4.5762966433       16.3243306522        2.0463732463
  C         4.7467291734       14.0902421327        1.0794385266
  H         4.3756486191       12.4970238038        2.3616116278
  C        -0.0790004907       14.3956649438       11.7132005349
  C         2.4014020395       14.4603165948       12.6279847617
  C         0.6547955672       11.8454151459       14.0420836256
  C         0.6070851313       10.5233747086       14.0435094827
  H        -2.3421569291        9.1196845735        3.4337290303
  H        -2.1420243041       10.6887606962        2.6729428097
  C        -1.2288349455        9.1803977422        1.5460183791
  S         4.0439468932       18.2016934914        3.5452331402
  N         4.5179529819       17.7461050556        2.0107603223
  C         4.8187694979       15.5630605012        0.8744989067
  H         4.9671514917       13.4206060888        0.2269675068
  H         0.2228958344       15.1850565697       11.0951239055
  H        -0.2946031174       14.9253936912       12.5902050694
  C        -1.2611092439       13.5616512073       11.0504056784
  H         2.9099778636       14.9212407074       11.7838050779
  H         1.8604525644       15.2833590635       13.2022084145
  C         3.4169227933       13.6831408337       13.3988412673
  H         0.4580001506       12.5430902619       14.8508292688
  C         0.3418768438        9.7271959234       15.2957365568
  H        -2.1329468325        8.8034550202        1.0885872647
  H        -0.5757154724        8.3551997995        1.6065640614
  C        -0.5236716784       10.0872754010        0.6355666676
  C         4.9850045718       16.1589350139       -0.4307341933
  H        -0.9660913727       13.1095673635       10.0445101493
  H        -1.4693284417       12.6922681810       11.6598951429
  C        -2.4829122159       14.3362600489       10.7377687923
  H         3.7166120849       12.8354432684       12.7461639635
  H         3.0005516973       13.3394177795       14.3668923771
  C         4.8107774957       14.4778890147       13.5998182820
  C         0.2957897365        8.3315857429       15.4588278922
  C        -0.1791474309       10.4316561231       16.5364455714
  H         0.0357154606       10.8343537303        1.1624751333
  H         0.3869332663        9.5426692066        0.2508453138
  C        -1.4787353325       10.5535640323       -0.3779981486
  H         4.9930542887       17.2183791180       -0.3597099028
  C         5.2932163764       15.6788807970       -1.6654229434
  H        -2.1156453211       14.9625877395        9.9230610279
  H        -2.9063674487       14.9215777684       11.5222665707
  C        -3.7085749566       13.5345899813       10.0850987210
  H         5.3687009286       14.4788917897       12.6691092883
  H         4.7544701727       15.4793314082       14.0292778931
  C         5.6267273822       13.6245436355       14.5716840934
  N         0.6766546384        7.4572757824       14.4363567868
  C        -0.0650211660        7.6684842384       16.6077812676
  C        -0.5269108155        9.7543219776       17.7335122538
  H        -0.2814064397       11.5121346191       16.5842462161
  H        -1.0347965286       11.2618352190       -1.1125199948
  H        -2.4050188808       10.9364926837        0.0001152127
  H        -1.7609357604        9.6500368717       -0.8608576887
  S         5.6572556729       14.0740973720       -2.1778073369
  C         5.4141851459       16.6117612952       -2.7872679138
  H        -3.2400372696       13.0162382572        9.2128250307
  H        -4.0185716956       12.8971060923       10.8889294336
  C        -4.8792027315       14.2816330713        9.4711059708
  H         5.5888794590       12.5883730764       14.1665243064
  H         5.1771887166       13.5573075676       15.6199904592
  C         7.0417372430       14.1466115565       14.6805936612
  S         0.4064638712        5.9095257046       14.8618833006
  N        -0.0074740734        6.3235718581       16.3991598790
  C        -0.4140652379        8.2584101738       17.7773912362
  H        -0.7509864224       10.4296516567       18.5474593700
  C         5.8550420226       14.6531922396       -3.7929625182
  N         5.7926176390       15.9325889286       -3.8754435964
  O         5.2790664213       17.8279681071       -2.7070479656
  H        -5.2891328405       14.8227187190       10.2923606345
  H        -4.5341174183       14.9886547698        8.7121448655
  C        -5.8356801651       13.3506346347        8.7472824935
  H         7.6452652098       13.3741017449       15.0762403527
  H         7.5952191877       14.2016910337       13.6903497599
  C         7.2930641429       15.4092694739       15.5151939467
  C        -0.7872553634        7.4012166087       18.8519430714
  S         6.2541468983       13.7179159346       -5.2047668887
  C         5.9491836614       16.6683616132       -5.1568602506
  H        -5.4671586527       12.9253932463        7.8730685256
  H        -6.1084532963       12.5909721334        9.4293932243
  C        -7.1092835978       14.1744555373        8.3720041148
  H         7.7994119868       15.2461657263       16.4443542290
  H         6.3023645284       15.8063732246       15.8003316524
  C         8.1954977312       16.3908136827       14.7955281787
  H        -0.6899856667        6.3430701476       18.7146556519
  C        -1.2076396744        7.8172853176       20.1074488032
  H         6.6813460094       16.2900889894       -5.8322727465
  H         6.3046795005       17.7478186239       -5.0138659266
  C         4.5799033776       16.8157286630       -5.8562248791
  H        -7.5913355129       13.5782612384        7.6060398818
  H        -6.7574122843       15.1251145689        8.0281523479
  C        -7.9942585113       14.3534522002        9.6789657412
  H         8.5211870900       17.1775302540       15.4307641333
  H         9.1281889627       16.0100698826       14.4414640758
  C         7.4360282514       17.1395387116       13.5927972964
  S        -1.7722044801        9.3585594448       20.6983029554
  C        -1.2294711533        6.7273697016       21.1440416575
  H         3.7278538472       16.2943522868       -5.4501610134
  H         4.5449904940       16.7262428278       -6.8781312836
  H         4.2234652386       17.8475015712       -5.8610433170
  H        -8.1085941955       13.3481882269       10.1539053029
  H        -7.3909012203       14.9840220123       10.2832391160
  H        -8.9417236403       14.7609338221        9.6258825298
  H         7.1700909147       16.4989019511       12.8025704057
  H         6.5103661794       17.5794708719       13.9192007959
  H         8.1075465738       17.8139115732       13.1402104855
  C        -2.1251552919        8.4488831901       22.2523761250
  N        -1.7827397754        7.1715230090       22.2864373173
  O        -0.8388568158        5.5439977365       20.9497415580
  S        -2.7978732894        9.2065313418       23.7224057813
  C        -1.9588947543        6.3276539208       23.4902747341
  H        -2.1188160059        5.3165840327       23.1877196210
  H        -2.8241592069        6.6969201938       24.1262009353
  C        -0.7276699221        6.4287590855       24.3261124370
  H         0.0956651265        5.9090987823       23.7961105806
  H        -0.8860925946        5.8461820609       25.2250840182
  H        -0.3649905688        7.4859913005       24.5164021330
