352
i =
  H        -2.7652363981       15.2418517637       16.7237560216
  C        -2.7005565329       14.1953703478       16.6884075130
  H        -3.7491900277       13.9045251534       16.7291093015
  C        -1.8440379668       13.7139399918       17.8650041038
  C        -2.0539748851       13.7740546780       15.3734994674
  C        -2.4226710767       14.1795429661       19.1794774790
  H        -1.8918219785       12.6743554862       17.7656905452
  H        -0.8412122126       14.1228109276       17.8278362176
  H        -2.5552767104       14.1991591967       14.5247327181
  H        -1.0183112374       13.9477503557       15.3018442461
  H        -2.2194140191       12.6796279891       15.2025736662
  C        -2.5391403158       13.0397594375       20.2353045165
  H        -3.4355432184       14.6585495356       19.0312537372
  H        -1.7842788463       14.9547503693       19.5356965910
  C        -2.7071219586       13.5321150665       21.7262287481
  H        -3.4326769941       12.4643300052       19.9796015610
  H        -1.7978063704       12.2620723228       20.1221997950
  C        -1.6962506172       13.0391984875       22.7648874853
  H        -3.6564872080       13.3844263619       22.1441623162
  H        -2.5883908501       14.5961527622       21.6933611850
  C        -0.4244737254       13.9568761873       22.9439713676
  H        -2.2485658938       12.9746445983       23.7133492117
  H        -1.4701790659       12.0662100564       22.3992151147
  C         0.7535047852       13.2056706261       23.5404438984
  H        -0.1524084677       14.3025039941       21.9455232777
  H        -0.5419774949       14.8536107654       23.5559880182
  C         1.1326781206       11.9069852931       22.7855074180
  C         0.3687930518       12.4673875909       24.8042112380
  C         2.1569174612       13.9795142890       23.6853852938
  C         0.9518352833       10.7811692522       23.5647767122
  C         1.6737629710       11.5270461716       21.5123255115
  C         0.4431545075       11.1455348603       24.8119604124
  C        -0.1318862188       13.0372394647       26.0002597644
  H         2.4499240364       14.6153205872       22.8501115345
  H         1.9175580632       14.7471902712       24.3802730090
  C         3.3430687768       13.2050105423       24.2307950124
  S         1.4378880207        9.2986339764       22.8165918268
  C         1.8707515142       10.1525012446       21.3807630251
  H         1.7810115656       12.2829609748       20.7159835301
  C         0.2203586481       10.4866965733       26.0209436025
  H        -0.3965622738       14.0978453214       26.0058713787
  C        -0.4224326081       12.3348003609       27.1580847320
  H         3.4763131297       12.2539337431       23.7112534114
  H         2.9813640583       12.9411395034       25.1726780281
  C         4.6965436640       13.9351797792       24.2685976024
  C         2.2463095439        9.4878306574       20.1153942123
  C        -0.2079814611       10.9951276429       27.2291530825
  H         0.3169771682        9.3372090427       26.0363369890
  C        -0.7916971281       12.6743237844       28.4303543531
  H         5.4476702150       13.3189349791       24.8222604174
  H         4.5790258393       14.9466542530       24.7861077813
  C         5.1619720628       14.4035456740       22.9381270733
  C         2.2965130100        8.1048850638       19.8347416302
  C         2.7417432140       10.3594442598       18.9943395241
  C        -0.6098087388       10.2629467120       28.4329483173
  C        -0.8401496040       11.5677709058       29.2100699813
  S        -1.2700320979       14.0867019706       29.2107448331
  H         5.9500570623       15.1996834783       23.1306652741
  H         4.3958534379       14.8421212147       22.2793365344
  C         5.9459733296       13.2669908972       22.2482922870
  N         1.9570216139        7.1782134108       20.7439212453
  C         2.6674079516        7.5609907574       18.6432606096
  C         3.1780179953        9.7837884564       17.8060906267
  H         3.0004455046       11.4037546034       19.2476757368
  C         0.5061775968        9.3341070062       29.1035789457
  C        -1.9629400617        9.4924979858       28.1984104851
  C        -1.1356949086       11.9272878073       30.5704853052
  C        -1.3193640981       13.2643216245       30.6652578086
  H         7.0497005661       13.2579664275       22.5502844999
  H         5.5783491639       12.2916894065       22.6076166631
  C         5.7419069449       13.2134063657       20.7205231255
  S         2.0299316654        5.7181337231       20.1145424349
  N         2.6292026638        6.1696947460       18.6823714389
  C         3.0494908856        8.3678157866       17.4875716849
  H         3.4633397960       10.3838165043       16.9969562774
  H         0.5864333652        8.4704607651       28.4329546451
  H         0.0648860289        8.8591321481       30.0084626685
  C         1.7815697629        9.9745843243       29.4100153846
  H        -1.7026296553        8.7808734469       27.3952015149
  H        -2.2575469165        8.8532617437       29.0174523073
  C        -3.1123950183       10.3129552069       27.7115890491
  H        -1.1462080527       11.1436121350       31.2967914014
  C        -1.7062626734       13.9854777684       31.9394146192
  H         4.9712123921       13.8886242443       20.3263196488
  H         5.3631820576       12.2317967261       20.4473139259
  C         7.0464514727       13.3389792666       19.9190008408
  C         3.2587597293        7.6727885393       16.3033861574
  H         2.1227133682       10.6230725362       28.5607604709
  H         1.5839393481       10.6301250475       30.2475322911
  C         2.8952643571        9.0068931162       29.5557567569
  H        -2.8728564709       10.8502765217       26.7850440923
  H        -3.3035408604       11.1099399169       28.4254447695
  C        -4.4302961487        9.5145275808       27.3774978174
  C        -1.8833503279       15.3703519746       32.0338484100
  C        -1.8718499711       13.2448846178       33.2072428945
  H         7.5588122829       14.1546484791       20.3217819218
  H         7.6291892062       12.4403465310       20.2543615147
  C         6.8979572789       13.4223510380       18.3948413164
  H         2.9588212071        6.6681805614       16.3825554020
  C         3.6470429619        8.0939031053       15.0440882152
  H         3.2243602885        8.5355554200       28.6110538776
  H         2.5551725532        8.1712767510       30.1122015035
  C         4.0771647292        9.6457311442       30.3374942044
  H        -4.3190855904        8.8534977544       26.4962893172
  H        -4.5869532466        8.9660505268       28.2793230665
  C        -5.6397869299       10.4717800559       27.0250977754
  N        -1.8653961473       16.2605928068       30.9966483477
  C        -2.1595358263       16.0508333093       33.2285832452
  C        -2.1476550778       13.8318887314       34.4327837831
  H        -1.8407578785       12.1787688561       33.1569622252
  H         7.4994785965       14.2694299561       18.2016202383
  H         7.3489573427       12.6042192662       17.8636982331
  H         5.9257679691       13.6191402973       17.9313898816
  S         4.2023797984        9.6739015479       14.6543794416
  C         3.6971066678        7.0896010478       13.9622067171
  H         4.4684651984       10.5580039053       29.8342853863
  H         3.7470692404       10.0944892341       31.2936145404
  C         5.0963554167        8.6020362080       30.4170525305
  H        -5.3961781147       11.2985170818       26.3141834483
  H        -6.0799219896       10.8980600625       27.9312206539
  C        -6.7357516875        9.7144485998       26.1681243171
  S        -1.9065748872       17.7809306606       31.4930496878
  N        -2.3668267119       17.4114054348       32.9741134559
  C        -2.2918252906       15.3543339502       34.4780217131
  H        -2.3242461260       13.2661224064       35.2927867487
  C         4.5096941779        9.0924544460       13.0708679731
  N         4.1256396746        7.7657946588       12.8376357061
  O         3.3179967755        5.9128640363       14.0841391213
  H         6.1104608248        9.0809298767       30.2347855567
  H         4.9609007569        7.8458237576       29.6542265078
  C         5.1145402542        7.9121202075       31.7835614416
  H        -6.2288991770        9.0997218138       25.4488820986
  H        -7.2550101079        8.9899457355       26.8316572045
  C        -7.7986944946       10.6917949475       25.6288270780
  C        -2.7432547622       16.1281409886       35.5551866676
  S         5.1125849107       10.1042689401       11.7702866074
  C         4.1286637635        7.1620573816       11.5176113406
  H         5.3797406607        8.6812348498       32.5328892110
  H         4.0852737791        7.7152679056       32.0092554695
  C         5.9240012968        6.6259971558       31.9475005074
  H        -7.3196389697       11.3376165326       24.9294958412
  H        -8.2328228142       11.3547963689       26.3183023965
  C        -8.9189259274        9.9598747066       24.9607074844
  H        -2.5806090073       17.2088950535       35.4682928636
  C        -3.2105947485       15.8976357400       36.8248221586
  H         4.4911914002        7.8360680488       10.7633746115
  H         4.8845867118        6.4101831107       11.4972382192
  C         2.8096466202        6.4377824561       11.0702306753
  H         5.1692414026        5.8191709211       32.1124474496
  H         6.3653070717        6.5949411464       32.9746177913
  C         7.0072734068        6.1798211053       30.9555013542
  H        -9.2222465071       10.2708799227       23.9929286970
  H        -8.4217404494        8.9880804657       24.7032270466
  C       -10.1296463623        9.7741637308       25.8264889445
  S        -3.5026377718       14.2971272916       37.5794839441
  C        -3.3328794976       17.0858995286       37.7786277179
  H         2.6274414601        6.8489136702       10.1036421363
  H         3.0536924058        5.3938387686       10.9576650771
  H         1.9414455497        6.6244681434       11.7093047441
  H         7.9502636174        6.7188329866       31.1147702059
  H         6.5616497388        6.2270303774       29.9294368853
  H         7.2064513890        5.1667091748       31.1069569942
  H       -10.6947753424       10.6682161103       25.9702656660
  H        -9.8526642410        9.2626600670       26.7624394184
  H       -10.7635058756        9.1356850988       25.3010741595
  C        -3.8582564968       15.2715128187       39.0276428274
  N        -3.7622808879       16.6051224989       38.9712511701
  O        -3.1087898022       18.2523277690       37.4782347694
  S        -4.4980415601       14.5006489761       40.5260079214
  C        -3.8230383321       17.5611444581       40.0863655973
  H        -4.2208890156       18.5102908826       39.6764057149
  H        -4.5714203750       17.2169896177       40.7738729553
  C        -2.4506901267       17.8258145005       40.6519379655
  H        -2.1323899454       18.8671546735       40.4921250884
  H        -2.4339605621       17.5781379854       41.7443750348
  H        -1.7555887896       17.2519445052       40.1058460370
  H         7.0077524330       11.7028806699        3.7680613965
  C         7.3248090087       10.7048370389        3.4965463625
  H         6.5920211473        9.9328467521        3.8788754702
  C         8.5194990272       10.3616997566        4.2746791121
  C         7.4525430635       10.5671737832        1.9828225891
  C         8.2738806991       10.5834478077        5.7228672147
  H         8.8383659669        9.3761573454        4.0497982958
  H         9.2716363162       11.1341857962        3.9243153651
  H         8.2333514550       11.0999954132        1.5426851657
  H         6.5203225534       10.8181811501        1.4928842176
  H         7.6364452207        9.5600810644        1.6881821489
  C         7.6054220789        9.4333623572        6.5074814435
  H         9.2040323841       10.9428926335        6.2366562209
  H         7.6477995554       11.4660289879        5.6688113348
  C         6.8791992929        9.8014205072        7.8249756228
  H         8.4625584621        8.7288997160        6.7850095364
  H         7.0622374689        8.8226475646        5.8626164296
  C         5.5663851066       10.5757561288        7.5850869119
  H         7.4822990808       10.3771834944        8.5052634688
  H         6.7409784797        8.8391422353        8.3127846130
  C         4.3105102516        9.6695827539        7.3017578190
  H         5.3534360690       11.2504916995        8.3953599204
  H         5.8467065149       11.3129856881        6.8000163213
  C         3.0171314495       10.4507814503        7.1995201464
  H         4.0606229604        9.0493767689        8.1288634966
  H         4.5272932451        9.0917949661        6.3769120969
  C         3.3126039432       11.7703107034        6.4575352784
  C         2.6144170786       11.2331513063        8.3963490418
  C         1.8003532984        9.7665379736        6.5825551156
  C         3.0444839192       12.9026200050        7.2577683846
  C         3.7783865741       12.0658123380        5.2077804693
  C         2.6244353493       12.5748968328        8.4963955637
  C         2.2855922919       10.6300618377        9.5853739180
  H         2.0586733796        8.9439690986        5.9159354616
  H         1.5091680610        9.1804879541        7.4764734731
  C         0.6701703982       10.5774749012        6.0044500501
  S         3.2718711295       14.3463069312        6.4996059579
  C         3.8455858401       13.4399856176        5.0978236993
  H         4.0820812977       11.2694459437        4.6226874194
  C         2.2573590356       13.2370486391        9.6294452188
  H         2.3301895014        9.5145058480        9.5442820240
  C         1.8521390262       11.2655108646       10.7384446285
  H         1.1477228784       11.3141040385        5.3364085431
  H         0.0873205360       11.0806205465        6.7463889146
  C        -0.3734520131        9.7847831720        5.1790646693
  C         4.4115088926       14.1471294319        3.9462526561
  C         1.8167174212       12.6193706070       10.8038783904
  H         2.3254577618       14.3418432869        9.5977406533
  C         1.3908005146       10.9755124045       11.9884198914
  H        -1.1752739691       10.4767194976        5.0086345597
  H        -0.7273609033        8.8795518983        5.6319375972
  C         0.1825172638        9.4151430772        3.7826067386
  C         4.4446617430       15.5794184182        3.7570332712
  C         4.7067120737       13.3230734544        2.7203808283
  C         1.4253223232       13.3285663837       12.0925274136
  C         1.1042342871       12.0617263374       12.7844237624
  S         1.2861297039        9.4574098728       12.8439991787
  H         0.2875553618        8.3369119188        3.6842588467
  H         1.1205507971        9.8450104237        3.5333399839
  C        -0.7180742653       10.0252783792        2.7557619587
  N         4.0593487312       16.4920327159        4.7342630179
  C         4.6667308479       16.1427066071        2.5200611272
  C         5.1454612524       13.9203765394        1.5480036548
  H         4.7147315177       12.1906322967        2.7370969903
  C         0.1196746394       14.2648859399       11.9746470886
  C         2.5848470730       14.0944719293       12.7678540539
  C         0.6499066227       11.6777773150       14.0673787265
  C         0.6181669059       10.3015788739       14.2261660143
  H        -1.6630396650        9.5801243224        2.8508144479
  H        -0.9598984102       11.0744803858        2.9380594323
  C        -0.2057867977        9.6825279170        1.3135815365
  S         4.2233675362       17.9752728855        3.9819098314
  N         4.5662474550       17.5329578432        2.5376469836
  C         4.9983767067       15.4209338476        1.3533941058
  H         5.4332300522       13.2599137061        0.7296939822
  H         0.2485668031       15.0715829834       11.2296341979
  H        -0.0230490376       14.9172483872       12.8530395068
  C        -1.0960339410       13.4530464826       11.4664684224
  H         2.8725857281       14.9069147960       12.1086783569
  H         2.2890178357       14.5512334105       13.7156581105
  C         3.8289704435       13.1740634763       13.0540507292
  H         0.4837894477       12.4953159373       14.8067397988
  C         0.1975524512        9.5246854171       15.4729162018
  H         0.4357014943        8.7625250374        1.4617328560
  H         0.4497027217       10.4037581739        0.8528155358
  C        -1.2770240092        9.3085617639        0.2414085738
  C         5.1656189465       16.1325041404        0.1488797878
  H        -0.8551941909       12.9683717876       10.5065924346
  H        -1.3937686450       12.6658700267       12.1989487337
  C        -2.4385195658       14.1981771122       11.1071540994
  H         4.1850091911       12.6098443714       12.1652464673
  H         3.5153857661       12.3908840811       13.7546161402
  C         4.9822916648       13.9703958719       13.6189644119
  C         0.0975357298        8.0659812549       15.6518295308
  C        -0.0756092032       10.2914672327       16.7531584214
  H        -0.9593790107        8.6492803120       -0.5685806928
  H        -2.0818184167        8.7696016677        0.6360228338
  C        -1.9326277593       10.5237595860       -0.4134089864
  H         4.8407245207       17.1445104225        0.1516982072
  C         5.4760365137       15.6642219847       -1.1019510735
  H        -2.1588311260       14.6733786123       10.1603631793
  H        -2.6338220604       15.0283523095       11.7912771996
  C        -3.6599515580       13.3432080053       10.9382756945
  H         5.1769343478       14.8251281747       13.0139933262
  H         4.6394406238       14.4610453880       14.5649849758
  C         6.2946639536       13.1684302158       13.8066290697
  N         0.3433769730        7.2151018184       14.6473424161
  C        -0.2290353318        7.3808846095       16.8187103252
  C        -0.4419463846        9.6115423738       17.9250953332
  H        -0.0582651562       11.3737139655       16.7777234321
  H        -2.6034173716       11.0383104298        0.2550679084
  H        -2.5095769777       10.2014592062       -1.2896187747
  H        -1.1523637557       11.2322853784       -0.7399115163
  S         5.8458437737       14.0481200574       -1.5004189879
  C         5.4934678941       16.6391350504       -2.2258965842
  H        -3.2652147296       12.3677586562       10.5339946813
  H        -3.9820308616       13.0176402450       11.9377628491
  C        -4.7120311259       14.0448235109       10.0894140965
  H         6.5126794557       12.7337762846       12.8018924187
  H         6.0612554338       12.3037386012       14.4430703260
  C         7.4713747040       13.8740672400       14.4587368001
  S         0.1506911285        5.6714453152       15.2082519775
  N        -0.2733533678        6.0119827572       16.7428158945
  C        -0.5936049877        8.0992528075       17.9705319782
  H        -0.5780954902       10.2513651774       18.7940811347
  C         6.1138395502       14.6845306181       -3.1023157841
  N         6.0031187389       15.9975691858       -3.2831271441
  O         5.2558654809       17.8577073358       -2.0919107705
  H        -5.2364154657       14.7709285533       10.7595086955
  H        -4.2269877099       14.7691714676        9.3884767006
  C        -5.5307634735       12.9813216381        9.4026693008
  H         7.2415802220       14.2173893141       15.4375289815
  H         8.2810746485       13.1689363338       14.5133083622
  C         8.0834584535       15.0187874841       13.7386029597
  C        -0.9344677929        7.3718104121       19.1722671784
  S         6.4192608705       13.7436085540       -4.5980434600
  C         6.0647904533       16.6970110918       -4.5196660954
  H        -4.9895799771       12.5615796555        8.5123924592
  H        -5.5693892020       12.0680744245        9.9268865727
  C        -6.9435698751       13.3980597961        8.9469014822
  H         7.6041160458       15.0309326731       12.7228207077
  H         9.1262717089       14.9366801813       13.7701468216
  C         7.7191369772       16.2617794310       14.5751503546
  H        -0.8294537775        6.2529733257       19.1062382423
  C        -1.4639179170        7.7635717915       20.4087018787
  H         6.8543449178       16.2547623948       -5.0405841769
  H         6.3883405750       17.7802030390       -4.3930849678
  C         4.7591113248       16.6322342998       -5.2158139199
  H        -7.4122766192       12.7127861008        8.2420168612
  H        -6.8506481032       14.3790225377        8.4271239281
  C        -7.9992096057       13.4580079163       10.0812122471
  H         6.5712635259       16.2648516274       14.5918002434
  H         8.1514835635       16.1035495419       15.5777161040
  C         8.1462997644       17.5881220286       13.9871800379
  S        -1.9867164601        9.3891184012       20.8707780098
  C        -1.4232878031        6.7421116136       21.5018549892
  H         4.4614987421       15.6020538095       -5.5280458098
  H         4.6654232877       17.3086192159       -6.0776447148
  H         3.9367329008       16.8920837278       -4.5400196011
  H        -8.9522556401       13.3799196165        9.6201054326
  H        -7.8507797203       12.5981545720       10.7831612226
  H        -7.9108661047       14.3784089473       10.6805150668
  H         8.0376391944       18.4138942666       14.6189445948
  H         9.2211031622       17.4126354819       13.8074892892
  H         7.5952995123       17.7468607224       13.1242278456
  C        -2.4150094003        8.6201886191       22.3693450877
  N        -2.1457015340        7.3205059031       22.5111341624
  O        -1.1585533294        5.5565380992       21.3228272664
  S        -3.4356431689        9.4240508161       23.6550336917
  C        -2.4103166072        6.6312884799       23.7025959294
  H        -2.4735374839        5.5740718445       23.5124170658
  H        -3.3056566336        6.9623205975       24.1580576278
  C        -1.2155853956        6.7301102062       24.6964486408
  H        -1.2941535195        6.2599680839       25.6542552176
  H        -1.1021674720        7.7768245507       24.9061640023
  H        -0.2424566995        6.3570281646       24.2942234765
