352
i =
  H        -3.8017308096       14.6497392174       16.4304919495
  C        -3.6433044435       13.5588167200       16.2193193784
  H        -4.5110897348       13.0966436366       16.5064781371
  C        -2.4889029911       12.9992429808       17.1364472303
  C        -3.2683726164       13.2793107219       14.7055795579
  C        -2.6150167060       13.5709141048       18.5636536308
  H        -2.4534475004       11.9620517180       17.2800446139
  H        -1.5407044010       13.1379696914       16.6715086338
  H        -2.2680336746       13.7453872741       14.5799724932
  H        -3.1420536688       12.2232910315       14.5076449769
  H        -3.9442460135       13.6999046930       13.9244965411
  C        -1.5415581273       13.0250052890       19.4692239028
  H        -3.5580524438       13.3081255129       18.9524300629
  H        -2.5711286719       14.6413044305       18.5917525122
  C        -2.1055147538       13.1546611289       20.8661028413
  H        -1.4152483584       11.9678892343       19.2570627720
  H        -0.7260388057       13.7361076094       19.3168951593
  C        -1.2277596832       12.5884286688       22.0034997034
  H        -3.0624796077       12.5981984699       20.9632478467
  H        -2.3399151696       14.2525870658       21.0454505613
  C        -0.0873153464       13.5182722999       22.2501915164
  H        -1.8627691758       12.6245763598       22.9007972147
  H        -0.9809197536       11.5785969997       21.8143205619
  C         1.1054679782       12.9331946929       23.1441804678
  H         0.3070985920       13.9410581954       21.3093808579
  H        -0.3981910993       14.3476794779       22.9076686017
  C         1.5397794969       11.6258695858       22.4707732165
  C         0.7780977272       12.2008256648       24.3737162729
  C         2.2685860835       13.9675713959       23.3581875249
  C         1.3936561547       10.5373190313       23.2435381909
  C         2.0893938083       11.2651160261       21.2014125784
  C         0.8490234020       10.8464116910       24.4797242975
  C         0.3087845655       12.8290183548       25.5147461023
  H         2.4274795627       14.6167477677       22.4933297465
  H         1.9914106672       14.6326488873       24.2173951368
  C         3.6727600804       13.3039793193       23.7703455061
  S         1.7797993672        9.0596019095       22.5699095668
  C         2.0487146794        9.8483769195       21.0930342605
  H         2.3018285649       12.0731925049       20.4608358940
  C         0.4313066918       10.2630708854       25.5969341137
  H         0.2626843114       13.8902090416       25.4713283858
  C         0.1164195060       12.2170524299       26.7044692409
  H         3.9026864618       12.4216324454       23.0724685814
  H         3.6496617763       12.7566192478       24.7285186182
  C         4.8549659532       14.1989616617       23.6912463991
  C         2.5311121065        9.1186979343       19.8878762499
  C         0.0409830592       10.8453479768       26.8090734929
  H         0.3100758525        9.1526833277       25.5700375991
  C        -0.3581644443       12.6012054057       27.9511136367
  H         5.6824167093       13.6622241953       24.1672532691
  H         4.6945656383       15.0683846071       24.3784766101
  C         5.3552240062       14.5699580468       22.2620986286
  C         2.4622653992        7.6904756740       19.6865931142
  C         2.7394978788        9.9317170485       18.6739676968
  C        -0.5015826117       10.1276422454       28.0325030041
  C        -0.7522639542       11.4859362872       28.7209293085
  S        -0.7693684399       14.0710700584       28.6706197296
  H         6.0811326088       15.2741915097       22.4051577555
  H         4.5821859591       14.9696284988       21.6111177332
  C         6.1045254057       13.3866852287       21.6590101986
  N         2.2054213487        6.6841695468       20.6408070539
  C         2.5174155014        7.1593022438       18.4233536719
  C         2.9923895149        9.3593664946       17.4319664141
  H         2.8415480628       10.9874497443       18.6736091957
  C         0.5966216834        9.3194478226       28.7365359829
  C        -1.7798690013        9.2704437480       27.7404061866
  C        -1.1302469363       11.8198595949       30.0581276113
  C        -1.1867901841       13.1992838046       30.1408631476
  H         7.1115842467       13.7590965544       21.4632163608
  H         6.2519957592       12.5447816231       22.3550459286
  C         5.4750857297       12.8370417316       20.3906532019
  S         1.9528985449        5.2618548254       19.8667062497
  N         2.3003977087        5.8058975825       18.3788349463
  C         2.8514093282        7.9051794294       17.2317361249
  H         3.1870198079       10.0448546564       16.5242284625
  H         1.1212093168        8.7255510483       27.9817326948
  H         0.1546609247        8.5549752478       29.4164978461
  C         1.6371526565       10.0967393257       29.4926503191
  H        -1.5804979896        8.4023125102       27.0492485527
  H        -2.2024803647        8.9514498701       28.6893338573
  C        -2.9106093249       10.0206613814       27.0752472306
  H        -1.4181570670       11.1036510989       30.8434995701
  C        -1.5067482102       14.0065900525       31.3707788399
  H         4.4615624993       13.1192649475       20.3908822973
  H         5.5073426172       11.7877015891       20.1975509761
  C         6.0147440230       13.5247310121       19.1024868329
  C         2.9755369413        7.3337818956       15.9452877613
  H         2.1070425320       10.8683794293       28.7971557773
  H         1.2464029781       10.3614512239       30.4384867030
  C         2.7436580211        9.0434951994       29.8005377133
  H        -2.5321620165       10.2600116574       26.0972800914
  H        -3.1361348683       11.0214439897       27.4203840911
  C        -4.1980101796        9.1592842159       27.0953394370
  C        -1.5858198037       15.3446723907       31.6047881105
  C        -1.7286014555       13.1743279220       32.5683506412
  H         5.3350025732       13.3511922967       18.2772426152
  H         5.9459429883       14.6591410953       19.1525678666
  C         7.4533847520       13.0689908157       18.6880910487
  H         2.7389364079        6.2559843065       15.8621376017
  C         3.3415654529        7.8789792253       14.6965849036
  H         3.2399052524        8.7355305457       28.8164861919
  H         2.2303099491        8.1520117923       30.2132033594
  C         3.9367304669        9.5886679134       30.5033216987
  H        -4.0075545595        8.2653939300       26.4929798150
  H        -4.4436066111        8.8136075283       28.0993154848
  C        -5.3984301979        9.9601135299       26.4935599716
  N        -1.1310597445       16.3152339784       30.7155454305
  C        -1.9826547049       15.9230633258       32.7899325771
  C        -2.0709386303       13.6922190558       33.7989617485
  H        -1.5059694675       12.1035320977       32.6054701412
  H         7.5675652692       13.0420212673       17.6113104701
  H         8.1761351110       13.7617745646       18.9594973703
  H         7.5244885871       12.0478536621       18.9528488939
  S         3.5300432596        9.5200324609       14.0971020837
  C         3.3572604217        6.8748228654       13.6292158332
  H         4.2630845134       10.5715976829       30.1033467532
  H         3.5776816636        9.7250689175       31.5250759107
  C         5.1329466941        8.6228562637       30.4752554606
  H        -5.0723565172       10.4619090428       25.5773247601
  H        -5.7441364728       10.6494213013       27.3224252598
  C        -6.5587475118        9.0812007381       25.9995050330
  S        -1.2046498720       17.7285718183       31.3369289083
  N        -1.9306218685       17.2948906973       32.7238548693
  C        -2.2373272055       15.1559794098       33.9742070193
  H        -2.0928544709       13.0279688260       34.6696741928
  C         3.6692595348        8.7386249090       12.5047692359
  N         3.7058865425        7.4266664632       12.4525341865
  O         3.3672798235        5.6700161095       13.8055270697
  H         5.9616823669        9.1142312486       30.7027737955
  H         5.2857620431        8.2235960337       29.5018968368
  C         4.9451773644        7.3939325942       31.3802409171
  H        -6.1337934558        8.4733849602       25.1749927514
  H        -6.9374025286        8.4983870969       26.8893088344
  C        -7.6807180636        9.9510531149       25.3481136885
  C        -2.6080671779       15.7937266828       35.1831094550
  S         4.1910022925        9.4703543790       11.0148693747
  C         3.5791854421        6.6079413766       11.2388166396
  H         5.1118829240        7.7906797733       32.3700082123
  H         3.8994787495        7.1183595511       31.4341939170
  C         5.8446556040        6.2097625816       31.0292766814
  H        -7.4807826008       10.0905760189       24.3328253811
  H        -7.6592500710       10.9287060773       25.7074732973
  C        -9.1242458845        9.4092935605       25.3600791560
  H        -2.4227471997       16.8019728274       35.0921158158
  C        -3.0709509409       15.3110777669       36.3839748107
  H         4.3030384628        6.8264248851       10.4685335992
  H         4.0219667889        5.6585102462       11.5198751135
  C         2.1651279202        6.4421681923       10.6832470803
  H         6.8229553586        6.5467699521       30.7104984341
  H         5.4877619166        5.7213453108       30.1493380421
  C         5.8251066788        5.3027846731       32.2568245034
  H        -9.7010313191        9.8629836300       24.5705079974
  H        -9.0499016876        8.3998438535       25.0088892285
  C        -9.7819818627        9.3455838252       26.6750885536
  S        -3.3416754736       13.6048759409       36.8344868864
  C        -3.4192312273       16.3040105223       37.4165262919
  H         2.0598224414        6.7115422864        9.6402406713
  H         2.0222225595        5.3347138482       10.6573825559
  H         1.3819260783        6.8970355341       11.2629332451
  H         6.0835444737        4.2536797931       32.0569826067
  H         4.8247669368        5.2490253782       32.7390435515
  H         6.4658956175        5.5866954558       33.1129766032
  H       -10.8400242624        9.2593921990       26.5986677109
  H        -9.6702682922       10.2468643084       27.2938286449
  H        -9.3918264059        8.5394342434       27.3408280559
  C        -3.7874940410       14.2456664946       38.3965445772
  N        -3.7525137388       15.6060380640       38.4968617167
  O        -3.2344329034       17.5689534097       37.3516353066
  S        -4.1644710497       13.3620204150       39.7857661078
  C        -3.9659657303       16.3439533578       39.7821228109
  H        -4.5009868419       17.2851101790       39.5698303985
  H        -4.6604983675       15.8316895832       40.4402018419
  C        -2.5847258990       16.4136725252       40.4979124229
  H        -1.8616078320       16.6970846627       39.7629457161
  H        -2.5326862363       17.1691068499       41.2923050934
  H        -2.2200414339       15.4137932464       40.8633212394
  H         7.1105879863       10.5468429115        3.4888310686
  C         7.9096197007        9.8405218517        3.4622739724
  H         7.4020020480        8.9159500740        3.6728897630
  C         8.8521170761       10.2103363583        4.6109188580
  C         8.6118373939        9.6817134933        2.1095627671
  C         8.1239542418       10.5497802186        5.9184063443
  H         9.5899134136        9.3584776430        4.7011586870
  H         9.3049762818       11.1528659042        4.2692119137
  H         9.2109392098        8.7585717064        2.0927469371
  H         9.4394949873       10.4219741779        1.8387018964
  H         7.9290015781        9.7491704826        1.3048555885
  C         7.3809382017        9.3310754741        6.5828109931
  H         8.8398126401       10.9576014503        6.5921211551
  H         7.3779782902       11.3756202133        5.7946842712
  C         6.4910480694        9.6744832860        7.7919931890
  H         8.1144327558        8.5936566387        6.8953302443
  H         6.8127882101        8.7563804775        5.8830689710
  C         5.2626578450       10.5312765128        7.4852205046
  H         7.1832401748       10.1623950238        8.5189885991
  H         6.1500666967        8.7496931343        8.2625568886
  C         3.9562567031        9.7533084905        7.1195086462
  H         4.9883546817       11.1776414332        8.3640482712
  H         5.4264129702       11.2332405285        6.6915523781
  C         2.6841529713       10.6239445033        6.9868780742
  H         3.7152899723        9.0263782476        7.8350444577
  H         4.0864608672        9.2836786263        6.1559008214
  C         3.0018043007       11.9600580782        6.2731875761
  C         2.2504272775       11.3458876407        8.2140940340
  C         1.5729088846        9.9559919425        6.2121327962
  C         2.8597461459       13.0799713121        7.1160429591
  C         3.5905374914       12.3371936236        5.0597109385
  C         2.3467869533       12.6918085706        8.3270191273
  C         1.6304683550       10.7020815367        9.2782855918
  H         2.0608314161        9.4139758624        5.4014454355
  H         1.0279124389        9.2004056826        6.8111173794
  C         0.5852719308       10.8599842128        5.5440981583
  S         3.3818777595       14.5692605435        6.4813591852
  C         3.7817106269       13.6862530721        5.0107379394
  H         3.7489873880       11.6351318443        4.2527131312
  C         1.8360173767       13.2618653503        9.4284182199
  H         1.6286997316        9.6226532895        9.1807640614
  C         1.1498997708       11.2429371414       10.4244398119
  H         0.9615401210       11.3038926087        4.6478032574
  H         0.2349296740       11.6874086988        6.2100119049
  C        -0.6910380679       10.2363626461        5.0089999452
  C         4.3201983189       14.3142471002        3.7635359311
  C         1.2367197974       12.5856453071       10.5083654856
  H         1.8434283639       14.3679910156        9.5152592021
  C         0.7095687535       10.8584183132       11.6714342310
  H        -1.3771959459       10.1794409145        5.8544307058
  H        -0.4606579797        9.2182226668        4.6433485493
  C        -1.4263519920       11.0627916086        3.9057590768
  C         4.2690007184       15.7072612277        3.4482461996
  C         4.9576791367       13.4427728146        2.6989845436
  C         0.7375237963       13.2694196529       11.7783422919
  C         0.4181213887       11.9575706211       12.4569710972
  S         0.4545338379        9.3639840445       12.3600290595
  H        -0.7485782651       11.8074532342        3.4615011437
  H        -2.2436243271       11.5887580254        4.3072738835
  C        -2.0593401440       10.1533868336        2.8345090462
  N         3.8741768904       16.7205449995        4.3172670316
  C         4.6722124577       16.2360245406        2.2327606602
  C         5.2685466857       13.9543109968        1.4792455573
  H         5.2200622177       12.4146491016        2.7953923434
  C        -0.5227098254       14.1130841988       11.4541805211
  C         1.9389772879       14.0846772253       12.4883110456
  C         0.0489557338       11.5628436322       13.7628649034
  C         0.0214533366       10.1838041515       13.8517417721
  H        -2.6868316036        9.3805900982        3.1733227695
  H        -2.6545518607       10.8526802216        2.2450859442
  C        -1.0328818781        9.4760267813        1.9296320386
  S         4.0902725418       18.1820754701        3.6409925456
  N         4.2682979135       17.5997412278        2.1201142426
  C         5.0569397160       15.3701816684        1.1557128721
  H         5.6270049705       13.4125304012        0.6156909084
  H        -0.4828308916       14.8540606971       10.6145668313
  H        -0.7784794676       14.8427042008       12.2807198336
  C        -1.7123634536       13.1158641064       11.0979839031
  H         2.2751079511       14.7972894025       11.7748515686
  H         1.4857133618       14.7218624418       13.2818529512
  C         3.0790418742       13.2073046148       12.8831067890
  H        -0.0018433470       12.2746302898       14.5451648572
  C        -0.1821456809        9.4463571960       15.1081870626
  H        -1.5089537578        8.7988495483        1.1987780577
  H        -0.3354287276        8.7181168073        2.4354028328
  C        -0.2703042816       10.4314637266        1.0081310112
  C         5.2634993896       16.0167893756       -0.0766647079
  H        -1.4772889434       12.2934913499       10.3913270257
  H        -1.9989027405       12.7751218042       12.0823587825
  C        -2.8826252102       13.9474391464       10.6649389030
  H         3.2678078043       12.5897584904       12.0043644391
  H         2.7960443756       12.4843372302       13.7013481459
  C         4.3721758002       14.0848470847       13.1936474747
  C        -0.1125353862        8.0410570998       15.2471212811
  C        -0.4012757663       10.1791537648       16.3625837851
  H        -0.2132517109       11.4514777385        1.4084920425
  H         0.7097147160       10.0027917669        1.0189271147
  C        -0.9199599088       10.5644562219       -0.3471009439
  H         5.0298360763       17.0886538724       -0.0754658121
  C         5.5130551827       15.5751721275       -1.3570808364
  H        -2.6381033764       14.7771271027       10.0101282399
  H        -3.2760967032       14.3184511778       11.5998321777
  C        -3.8323815936       13.2009677251        9.7165992530
  H         4.9437939734       14.3752632383       12.3568278452
  H         4.0984296257       15.0086741341       13.6585070624
  C         5.2041519801       13.3695092519       14.2244566134
  N         0.1591184078        7.1760169805       14.2264029810
  C        -0.3927984043        7.4017354018       16.4395513987
  C        -0.6040030297        9.5424778738       17.5723247625
  H        -0.1865845986       11.1715204772       16.3713415860
  H        -0.9721634615       11.5911217241       -0.7553437684
  H        -1.9651025076       10.4005417702       -0.1991220811
  H        -0.4451170427       10.0493328144       -1.1229416530
  S         5.7825456506       13.9619672416       -1.8732311200
  C         5.5781991445       16.5033942726       -2.5315863243
  H        -3.2301799417       13.0235415772        8.8280461617
  H        -4.2106818421       12.3821684021       10.3036033924
  C        -4.9832029238       14.0144156008        9.2678468085
  H         5.3833654698       12.2814610287       13.9291841050
  H         4.7440752725       13.3887136582       15.2146226078
  C         6.5382332322       14.0578823458       14.4851679162
  S         0.0088211714        5.6047298430       14.7387744409
  N        -0.3589377514        5.9762291208       16.2760264144
  C        -0.7037685899        8.0313286546       17.6712040551
  H        -0.7702517303       10.1477819187       18.4029292248
  C         6.0903999747       14.5441241796       -3.5427923885
  N         6.0260713561       15.8923566695       -3.6675863011
  O         5.4427297101       17.7034102575       -2.3918068893
  H        -5.5033808155       14.4835245079       10.0572024569
  H        -4.5439691896       14.7464537007        8.6374406474
  C        -5.9740830811       13.1636397797        8.4623365068
  H         7.0487618846       13.5068442793       15.1940670032
  H         7.0380522398       14.1328368454       13.5468241240
  C         6.3162314517       15.5368507687       14.8263775686
  C        -0.9180919511        7.2929009787       18.8456040826
  S         6.4710927155       13.6779989797       -4.9952025853
  C         5.9913990434       16.7176870390       -4.8449950240
  H        -5.8098818489       13.3109508365        7.4407966469
  H        -5.6773561281       12.1357864689        8.6867659695
  C        -7.3914414642       13.5950704950        8.7997856242
  H         5.6264108799       15.6863648612       15.6655446159
  H         5.9002318039       15.8994295576       13.8569388754
  C         7.5961379716       16.2942213472       15.2440723099
  H        -0.7677261669        6.2131920139       18.5920503710
  C        -1.3352843375        7.6195497237       20.1016835855
  H         6.7281714323       16.3867505610       -5.5749392522
  H         6.4865485522       17.6630224382       -4.6375988515
  C         4.6096356663       16.8203976364       -5.5109220829
  H        -8.0897192785       13.2256269022        8.0624041641
  H        -7.4427739025       14.7313507157        8.8433518533
  C        -7.7799874000       13.1565517949       10.1641054589
  H         7.6137025686       16.2616388031       16.3327634418
  H         8.4374610877       15.8317112138       14.7986655226
  C         7.6966148153       17.7791869872       14.7164493268
  S        -1.6993281391        9.1844014246       20.7304541986
  C        -1.4029750928        6.4717472753       21.0864902325
  H         4.5616839420       17.6325932588       -6.2271835232
  H         3.8784135904       16.9508348158       -4.7525166180
  H         4.3008855233       15.9660961224       -5.9958477609
  H        -8.5569113592       12.4041538075       10.0141562677
  H        -6.9900639018       12.7850070433       10.7247378963
  H        -8.1661496099       14.0837716601       10.6461989604
  H         7.4603885509       17.8203530766       13.6071164110
  H         7.0024889523       18.2918424728       15.2940923544
  H         8.6809336703       18.2263148485       14.8897879457
  C        -1.9597905650        8.3293419968       22.2762732770
  N        -2.0106255058        6.9904397879       22.1907982397
  O        -1.2165075114        5.2588376715       20.8274079749
  S        -2.6384750411        9.1101000895       23.6887874058
  C        -2.2250490951        6.1979889435       23.3805017538
  H        -2.4857768010        5.2272565963       23.0229287506
  H        -3.0225470335        6.6469978604       23.9405483032
  C        -1.0227152609        6.1814037009       24.2757325845
  H        -0.7958936458        5.2932487645       24.7033007872
  H        -1.1286415683        6.7227963101       25.2133832420
  H        -0.1802943487        6.5060726073       23.6212369263
