352
i =
  H        -3.7439466161       14.9213400734       16.0692353366
  C        -3.2056203074       13.9652901432       15.8742069320
  H        -3.9387880896       13.2190049988       15.9051721427
  C        -2.1362986216       13.7735774097       16.9033841288
  C        -2.7533203628       13.9792391400       14.3554258404
  C        -2.7566165995       13.6813209241       18.3393830830
  H        -1.5055922066       12.9587593443       16.6620389855
  H        -1.5278555102       14.5542972694       16.7892128699
  H        -2.5432938752       15.0579747260       14.0111419831
  H        -1.9266388287       13.2254274621       14.2090742773
  H        -3.5012864442       13.5906503112       13.6471152232
  C        -1.5964702853       13.6320527393       19.3343304440
  H        -3.2901262345       12.7508779737       18.3494573263
  H        -3.4402108320       14.4969819730       18.5024444196
  C        -2.0572366535       13.7286518899       20.7671645703
  H        -1.0397270747       12.6920668888       19.3547656674
  H        -0.9082630750       14.4509977782       19.2640970707
  C        -1.1520256370       13.0911848166       21.7487036866
  H        -2.9631679813       13.1041926785       20.8517093155
  H        -2.2466421184       14.7756318956       21.0344737717
  C         0.0355463715       14.0775316803       22.0151332456
  H        -1.7085538978       12.9512680659       22.6380902319
  H        -0.8388367551       12.0643516539       21.4624940912
  C         1.1764475909       13.4070297922       22.9048166209
  H         0.4157855590       14.4443076782       21.0905305710
  H        -0.3077209220       14.9694547511       22.4637294988
  C         1.6121837112       12.1493183063       22.1449184449
  C         0.7764763954       12.6171063440       24.0275360568
  C         2.2831267730       14.4082644285       23.1137417534
  C         1.4180136176       10.9925714723       22.8627502801
  C         2.2189089025       11.8754659444       20.9024792472
  C         0.7853789934       11.2743130350       24.0462692395
  C         0.3820425337       13.1465023988       25.2148490519
  H         2.5482528762       15.0370205195       22.1876588190
  H         2.0527605129       15.1178989597       23.8646460300
  C         3.5788056843       13.7950804822       23.5345255700
  S         1.9260936473        9.5560997226       22.0528263572
  C         2.2845924237       10.5299742711       20.6503104867
  H         2.3339021785       12.6515583601       20.1665237587
  C         0.3673130551       10.5876683139       25.1210992317
  H         0.3409346088       14.1940121930       25.4246849165
  C        -0.0389020858       12.5233174039       26.3092822956
  H         3.9728970504       13.0730046332       22.8685705699
  H         3.3738551816       13.3309414702       24.4882834412
  C         4.6650746821       14.8231225428       23.8671407186
  C         2.7830880911        9.9735818817       19.3895866163
  C        -0.0372154275       11.1561132111       26.3673489940
  H         0.3298516260        9.5358669166       25.1063206368
  C        -0.4182151378       12.8843846398       27.5803488136
  H         5.3879363088       14.4445481336       24.6171948008
  H         4.3114907024       15.7104566460       24.2892847344
  C         5.4857733489       15.4211290868       22.6198496523
  C         2.6282540096        8.6356206925       18.9768041963
  C         3.2971171590       10.9331248701       18.3392316224
  C        -0.3243115943       10.4483369293       27.6075277614
  C        -0.4559427351       11.7879197424       28.4018786255
  S        -0.6040624111       14.3956469278       28.3921184625
  H         6.1867855584       16.0891572814       23.1534488244
  H         4.8009340978       16.0361819297       22.0014325047
  C         6.3352546860       14.4073686705       21.8899673157
  N         2.1919106485        7.5919531050       19.8309838320
  C         2.9725548325        8.2420227863       17.6991603416
  C         3.5960370918       10.5534963665       17.0044643105
  H         3.5035061823       11.9669274506       18.6907689317
  C         0.7770567780        9.7071831271       28.4410834102
  C        -1.6557722987        9.6967988643       27.4094294951
  C        -0.7884269245       12.1368164332       29.7537570285
  C        -0.8442726418       13.5096208066       29.8932147669
  H         7.2955092853       14.7514276323       21.6875265911
  H         6.5060177889       13.5041955373       22.4895213297
  C         5.7663015532       13.9120333182       20.5458086019
  S         2.4393778508        6.2174051913       18.9335894748
  N         2.7978173606        6.8776782370       17.5055671808
  C         3.3875343938        9.1620325240       16.6606952274
  H         3.8222128670       11.2925591533       16.2767378928
  H         1.1239401620        9.0035653051       27.7005010196
  H         0.3966760432        9.1078834790       29.2151395198
  C         1.9484374227       10.5319008988       28.8547439882
  H        -1.4345180135        8.9619586256       26.5777572601
  H        -1.9290344452        9.1328128504       28.2115980278
  C        -2.7742602008       10.5222214131       26.8317987705
  H        -0.9559980098       11.4003212239       30.5051134758
  C        -1.0822278291       14.2510762994       31.1588436593
  H         4.7828537910       14.3684090540       20.2650178231
  H         5.5159452006       12.8510068827       20.5543735273
  C         6.8704871348       13.9612182594       19.4629192490
  C         3.6577122709        8.6393036449       15.3706600357
  H         2.3500284884       10.9720138193       27.9982879514
  H         1.7406977484       11.4221408003       29.4234773593
  C         3.0678386238        9.7267170397       29.4626184838
  H        -2.5245293813       10.6792156321       25.7904959399
  H        -2.8409703996       11.4762581091       27.4104208015
  C        -4.1488689189        9.9060561796       26.8831671727
  C        -1.3433804119       15.6496809625       31.2288696964
  C        -1.1698060634       13.5156946483       32.4565184688
  H         7.4402367878       14.8620193771       19.5083224314
  H         7.6019457473       13.2518016494       19.7271148220
  C         6.2762803710       13.7155451467       18.0519569416
  H         3.5505342867        7.5831962776       15.2865239775
  C         4.1298224874        9.1391927101       14.1590471186
  H         3.3854989743        8.9707621486       28.7585311646
  H         2.5582139914        9.1795921040       30.2788831007
  C         4.1910470254       10.6568124101       29.9048947462
  H        -4.0515557481        8.8387763660       26.5588772392
  H        -4.5673601541        9.9422148497       27.9032715675
  C        -5.0364808721       10.6127678061       25.7344774806
  N        -1.0907061068       16.5938926961       30.2568864928
  C        -1.6806195210       16.2568770930       32.4115176466
  C        -1.6345985180       14.0498685918       33.6104744439
  H        -1.0652026624       12.4408449866       32.4223541534
  H         5.3855932939       13.1185771512       17.9866365583
  H         6.0887961449       14.7271057127       17.6771409499
  H         6.9896402501       13.1944316905       17.4001824583
  S         4.5270571273       10.7730729614       13.7527196570
  C         4.2875467897        8.1581408291       13.1000152865
  H         4.2163419859       11.6103141882       29.3575078499
  H         4.1663909621       10.9812418573       30.9575902079
  C         5.4913461153        9.9198404423       29.7244111389
  H        -4.5777791912       10.5107866548       24.7390884701
  H        -5.1381243480       11.6606224692       26.0559704839
  C        -6.4662416823       10.0609549148       25.7420191393
  S        -1.0895245123       18.0625991732       30.9125412835
  N        -1.7367363881       17.6630155637       32.3049758279
  C        -1.9424479295       15.5555328095       33.6430466362
  H        -1.6478770976       13.4584041499       34.4951494354
  C         4.8520819856       10.1422892680       12.1211740344
  N         4.7993677323        8.7962924706       12.0439812277
  O         4.0134268922        6.9371365200       13.1960248048
  H         6.2248226628       10.6711181305       30.0455936417
  H         5.6320626354        9.7397352888       28.6649323923
  C         5.4867508569        8.6177496511       30.5644244766
  H        -6.5599687581        9.2678475888       24.9526288321
  H        -6.8271668282        9.7509363472       26.7503323384
  C        -7.4776621518       11.1895769957       25.5447910708
  C        -2.2155799534       16.3282214155       34.7770083817
  S         5.2993096940       11.0526835982       10.6406296517
  C         5.0862586962        8.0255753497       10.9011187435
  H         6.0036545695        8.8384239004       31.4998583788
  H         4.5381297961        8.2748821873       30.9167856644
  C         6.1510428280        7.4161126881       29.7780329697
  H        -7.2899670493       11.8686589922       24.6735205167
  H        -7.3802290130       11.8391316786       26.4150993491
  C        -8.8943268067       10.6263333649       25.4532361726
  H        -1.9836331554       17.3706255032       34.7308810699
  C        -2.7779923668       16.0118782742       36.0113281353
  H         5.8937904980        8.5455073653       10.3724269744
  H         5.5123936092        7.0346417174       11.0985396145
  C         3.8624086397        8.0032288008        9.9300149791
  H         6.6367520204        7.7060965617       28.8297500336
  H         5.3277960944        6.7411726542       29.4849148661
  C         7.1106979707        6.4919565182       30.6789120223
  H        -9.3798989164       11.2941427615       24.7526458259
  H        -8.8672577518        9.6031528745       25.0315210048
  C        -9.6633785245       10.7038490764       26.8121342945
  S        -3.0744467722       14.4650351621       36.6083466064
  C        -2.9048509613       17.1036150537       37.0269749362
  H         2.9035198219        7.5620594761       10.2260031187
  H         3.6946188375        8.9332169156        9.4621372725
  H         4.1778910217        7.3971001829        9.0328793778
  H         6.7949634151        6.5624349461       31.6848289873
  H         8.0615292768        6.9290957481       30.6236734557
  H         7.2885232815        5.5309795974       30.1990262014
  H        -9.0477996555       11.2163057025       27.5665180263
  H        -9.7121664509        9.6373857493       27.0590674385
  H       -10.6423461120       11.0515850644       26.7126848774
  C        -3.4598452358       15.1975436516       38.1705031055
  N        -3.4048680233       16.5867676764       38.1667246887
  O        -2.7716287529       18.3085428247       36.7877453901
  S        -4.2006047810       14.3721257671       39.4662256561
  C        -3.8027871147       17.4827317619       39.2704228424
  H        -3.9895015416       18.4620475729       38.8065553008
  H        -4.7033655111       17.2602784915       39.8293139215
  C        -2.6162888939       17.6098579838       40.2466911395
  H        -1.7547122454       16.9829015942       39.9023972525
  H        -2.2256942125       18.6429013740       40.0507045307
  H        -2.8705791830       17.4919781675       41.3419813121
  H         7.4788444157       11.8570434361        3.3106356464
  C         8.3816676142       11.2090427943        3.4600764918
  H         7.9898808168       10.1748338433        3.5430842440
  C         9.2019093385       11.5193161206        4.7539029429
  C         9.3785953668       11.3408577751        2.3232038249
  C         8.3252611124       11.4935328773        5.9924522038
  H         9.8747750589       10.6905698348        4.8492866674
  H         9.7862952320       12.4056597342        4.5776353903
  H        10.0798978809       12.2022656978        2.5268489364
  H         8.8250496294       11.4268995850        1.4164233516
  H        10.0302400218       10.4785107349        2.2631698083
  C         7.6583203076       10.1261671656        6.3955458937
  H         9.0527914457       11.8568348426        6.6311945854
  H         7.6362061676       12.3812488166        5.8308522730
  C         6.6579665586       10.2403273989        7.5627214593
  H         8.5625676899        9.5774519247        6.7097304184
  H         7.1780939144        9.6288363296        5.5247639906
  C         5.3801050005       11.1021928130        7.1519407154
  H         7.1096373102       10.7388530204        8.3791862119
  H         6.3268527259        9.2750552453        7.9206272909
  C         4.0995500545       10.3066508274        6.8072567972
  H         5.1857842589       11.7787727763        7.9287394624
  H         5.6380164635       11.6946860336        6.3424237124
  C         2.8860479470       11.2262515448        6.6762398597
  H         3.9024966626        9.4957434147        7.5089727265
  H         4.2758104143        9.7546366949        5.8566609172
  C         3.2034425450       12.5969221527        6.0847934331
  C         2.3887967099       11.8735914741        7.9450965931
  C         1.7162140578       10.5607131000        5.8926242828
  C         2.9297416076       13.6775126064        6.9061240424
  C         3.7881664216       13.0494731228        4.8994992127
  C         2.4666315570       13.2305698524        8.0683083230
  C         1.9974532979       11.2266702964        9.1519877190
  H         2.0422751021       10.0734212768        4.9918977756
  H         1.2187698406        9.8487262459        6.5386485046
  C         0.6175004409       11.5301601491        5.4718229416
  S         3.2413325789       15.2765707128        6.2348062515
  C         3.8439982633       14.4337887704        4.8444362033
  H         3.9877961254       12.3273233519        4.0949428952
  C         2.2663078275       13.8164068872        9.3111630646
  H         1.7333054248       10.1764154073        9.0703015947
  C         1.8271583049       11.7934109754       10.3622004873
  H         1.0475490284       12.3345616653        4.7972267620
  H         0.2178629431       11.9897127417        6.3169425346
  C        -0.5771459606       10.8298450485        4.8305671833
  C         4.3237254389       15.1243370991        3.6263670322
  C         1.8627432992       13.1351430737       10.5411848336
  H         2.3704248363       14.9138831499        9.3171898503
  C         1.5146390156       11.3274069399       11.5863363692
  H        -1.3859828983       11.5580950900        4.7614517233
  H        -0.9025126977        9.8639362735        5.2615199347
  C        -0.1829422253       10.3573775282        3.4367180072
  C         4.3758231858       16.4990576726        3.3800729527
  C         4.8288981647       14.3128742584        2.4785352421
  C         1.5265368401       13.7311444793       11.8951725357
  C         1.3611554784       12.3508027847       12.4845838236
  S         1.2277593125        9.7783523030       12.2812399554
  H         0.2977880491        9.4420749341        3.5205130156
  H         0.4776501856       11.1983346342        3.0172722727
  C        -1.2935674099       10.1106528498        2.3731256861
  N         4.0863736954       17.4999327234        4.3076879756
  C         4.6335493923       17.0507719364        2.1458632759
  C         5.1705459570       14.8744936868        1.2746851154
  H         4.9105663210       13.2461731629        2.5294728316
  C         0.2295310427       14.5419962268       11.6527464163
  C         2.6884371193       14.5887540565       12.4028424419
  C         1.0124223073       11.9015969447       13.7933115070
  C         0.7739587531       10.5625457441       13.7721874142
  H        -2.1412782788        9.6607108702        2.8292291137
  H        -1.6874946717       11.1300167141        2.0057458098
  C        -0.8244151408        9.1743606359        1.1721601322
  S         4.1325911373       18.9011435290        3.5665149524
  N         4.4507758220       18.4134007156        2.1089368742
  C         5.1273070522       16.3248563682        1.0010011146
  H         5.3222765843       14.1532974985        0.4411600465
  H         0.4252253822       15.2212821675       10.8359905176
  H        -0.0913159674       15.0811808727       12.5272125138
  C        -0.9738361445       13.7231749098       11.2863568955
  H         3.6379075897       14.2124257774       11.9226854525
  H         2.5988816930       15.6191432876       12.0718721689
  C         2.7361218452       14.4386210996       13.9139192118
  H         0.8887898300       12.5942195589       14.5890346907
  C         0.3834196111        9.6948682285       14.9060723694
  H        -1.6880614942        8.7060108614        0.7204081511
  H        -0.2261446080        8.2985054193        1.5020631766
  C         0.1281305642        9.9435665165        0.2664792216
  C         5.3257540941       16.9671326844       -0.2677694480
  H        -0.7500319428       13.0153874866       10.4580148596
  H        -1.2542336470       13.1406296305       12.1829674188
  C        -2.1749705414       14.6374326952       10.8848816145
  H         3.0661137196       13.3908178973       14.1074129194
  H         1.6962564876       14.6353268499       14.2640394126
  C         3.7103538993       15.5203580614       14.4016054458
  C         0.3753328028        8.2499464537       14.9917593988
  C         0.1181012249       10.3512569253       16.2105320305
  H         0.6029901108       10.8239446624        0.8113699573
  H         0.9538988885        9.2337597121       -0.0554734702
  C        -0.5490632387       10.6091958880       -0.8236802946
  H         5.2087321145       17.9933813717       -0.1692244025
  C         5.6421325468       16.4656546706       -1.5146434353
  H        -1.8380294971       15.3605659292       10.1667253988
  H        -2.4924109132       15.3005155480       11.7711386265
  C        -3.3873830053       13.7380354572       10.4604660246
  H         3.3416583694       16.5422388409       14.2909956624
  H         3.8432849131       15.3517555313       15.4823798910
  C         5.1198359429       15.5432292983       13.7765024109
  N         0.5526237212        7.4289267412       13.8961788013
  C        -0.0320466189        7.5634484649       16.1807263640
  C        -0.2640539843        9.6649610960       17.3865416835
  H         0.0339256329       11.4201848380       16.2920711471
  H        -1.5461127399       10.1558515809       -0.9792853461
  H         0.0529631079       10.6326771328       -1.7294397685
  H        -0.6433253463       11.5721945450       -0.4340010522
  S         5.8841143814       14.8048452104       -1.9308890122
  C         5.6180775316       17.3816027578       -2.6785449816
  H        -2.9847202848       13.2167354680        9.6300662847
  H        -3.6983518989       13.0921142859       11.2219875252
  C        -4.4855339159       14.5474595201        9.9013207450
  H         4.9792366573       15.9538261608       12.8260857345
  H         5.4911138468       14.5023387305       13.6436672656
  C         6.1217657640       16.3378981889       14.6206932805
  S         0.3137824007        5.9626153476       14.4311999042
  N        -0.1573487432        6.2095829581       15.9549744305
  C        -0.3903656637        8.2096813651       17.4129035166
  H        -0.5187493235       10.1264709535       18.3192463786
  C         5.9866723629       15.3070905261       -3.6613619546
  N         5.8383467788       16.6717821040       -3.8272426637
  O         5.4707874617       18.5513548357       -2.5409895196
  H        -4.9051462092       15.2472842172       10.6778337392
  H        -4.0141615324       15.0414953243        9.0107934844
  C        -5.6124697855       13.6531843946        9.1612470837
  H         5.7045888037       17.1256626268       15.2686943395
  H         6.5007262289       15.5809664902       15.3502118055
  C         7.2894862829       16.8458136897       13.7489378573
  C        -0.6348539420        7.3978247162       18.5743898630
  S         6.1700901096       14.2743709837       -5.0859778310
  C         5.8152758920       17.4449691674       -5.0695638142
  H        -5.2822992120       13.1196238558        8.2720273640
  H        -6.0330896831       12.8708452070        9.7758151737
  C        -6.7950423605       14.5510558648        8.9002433135
  H         7.0298604570       17.0573046469       12.6407830696
  H         8.0856335790       16.1471632763       13.8291819155
  C         7.9363808799       18.1964357331       14.2192153631
  H        -0.1351370995        6.4843062922       18.5004738933
  C        -1.1192824597        7.6029564840       19.8701465404
  H         6.3996504470       16.9885526293       -5.8199548902
  H         6.2200929379       18.5141966547       -4.9173368167
  C         4.3926018229       17.5303713923       -5.5366179273
  H        -7.2394913489       14.2683609718        7.9664669471
  H        -6.5405522695       15.6087549122        8.8124596356
  C        -7.8115147974       14.5479134990        9.9685531352
  H         8.8194444492       18.3506319435       13.6210484072
  H         7.1898217546       19.0050582464       14.0021006127
  C         8.4739094276       18.1423248876       15.6284281483
  S        -1.7952494099        9.0722907189       20.3895299115
  C        -1.0903811529        6.5085774650       20.8799549120
  H         3.8114602160       18.4970905801       -5.3736012390
  H         3.7426684638       16.7494725187       -5.1316845815
  H         4.3688062705       17.2662560574       -6.6171535259
  H        -7.7637877214       13.5501137450       10.4855959373
  H        -7.6907692872       15.4466541203       10.5704110628
  H        -8.8052256534       14.6756180801        9.4210558776
  H         7.5946356339       18.2278683303       16.3160066137
  H         9.1036237993       17.2616663093       15.7631572544
  H         9.0610794079       19.0519182234       15.7460287424
  C        -2.0370024845        8.3086919721       21.9832585723
  N        -1.6784063254        7.0171627087       22.0092305772
  O        -0.5839127354        5.4529746470       20.7241795819
  S        -2.4803013754        9.0924283585       23.4709676423
  C        -1.7321539343        6.3233202880       23.2687865447
  H        -1.7813169980        5.2917689363       22.9745182014
  H        -2.6372722601        6.6147974682       23.7380687021
  C        -0.4433801450        6.5531681943       24.0180692225
  H         0.0931060262        5.6423347692       24.3713617022
  H        -0.5776779652        7.1895768995       24.9277250083
  H         0.2811119662        7.0904311123       23.4123598539
