352
i =
  H        -4.2366557212       13.9626803277       16.5775519087
  C        -3.2572692932       13.5923695835       16.3512048880
  H        -3.1547714124       12.4899619288       16.2374121926
  C        -2.4559655327       14.1497693048       17.5572697101
  C        -2.8823375015       14.2265268362       15.0447398699
  C        -2.9535920743       13.6163605123       18.9346457228
  H        -1.3505752233       13.9762815318       17.5452107554
  H        -2.6289630624       15.2802496599       17.5525342331
  H        -2.0234581158       13.7500344811       14.5878467013
  H        -3.5967361375       14.2155417361       14.2229849341
  H        -2.6504483704       15.2747127892       15.0887007882
  C        -1.8982522563       13.1684056282       19.9412459255
  H        -3.6861653956       12.8193263748       18.6596687115
  H        -3.5618598911       14.3479932130       19.3986506220
  C        -2.3965487918       13.0555188247       21.3619262980
  H        -1.3548632074       12.2035468748       19.6951948282
  H        -1.2228556306       13.9651665148       19.8519424400
  C        -1.3798832417       12.5362023199       22.3297060486
  H        -3.2685990126       12.4239725608       21.3999150526
  H        -2.6394696025       14.1108347231       21.7369009366
  C        -0.1148919455       13.4640330444       22.5645227752
  H        -2.0116235999       12.4959163779       23.2471804110
  H        -1.0008424824       11.5937558551       22.0004668317
  C         1.1398791315       12.7963736957       23.2717644598
  H         0.2616840965       13.9402235468       21.6044584288
  H        -0.4689270637       14.2461803775       23.1645626947
  C         1.4508059319       11.4460480182       22.5531756268
  C         0.6957838836       12.0239907080       24.4678412473
  C         2.4138864290       13.6016817318       23.4858476484
  C         1.0853847367       10.3362669706       23.3036608708
  C         1.8671050034       11.0151865130       21.2746558452
  C         0.6809124486       10.6837147577       24.5557583616
  C         0.2009778615       12.6366809965       25.6307957226
  H         2.7704056771       14.1768459580       22.6254887064
  H         2.3329949572       14.3202873591       24.2949657581
  C         3.6105659844       12.7322902984       24.0468642803
  S         1.4157798657        8.8209768027       22.6568755754
  C         1.9110633384        9.6135119378       21.1937901499
  H         2.1178596016       11.7818473615       20.5691326150
  C         0.2765617631       10.1055773247       25.7132792222
  H         0.2956564761       13.6461161973       25.5739668340
  C        -0.1857653771       12.0654085663       26.7839531848
  H         3.8108757143       11.8862700830       23.4062041210
  H         3.1781020540       12.2830384134       24.8999849964
  C         4.8643071052       13.6076172668       24.4014077351
  C         2.3655837571        8.8476623746       20.0109158893
  C        -0.2380288143       10.6915593333       26.9024203032
  H         0.2739282674        9.0082737533       25.9354287465
  C        -0.6396879263       12.4784030610       28.0172233802
  H         5.6373158504       12.9299368956       24.8211304143
  H         4.5121094895       14.2529800131       25.2131023153
  C         5.4974628036       14.3678844292       23.2302665098
  C         2.2479819254        7.4837575390       19.7316934918
  C         2.7859563395        9.7291840224       18.8408946783
  C        -0.7660654802       10.0077033687       28.1249890138
  C        -0.9059892252       11.4202778869       28.8248197899
  S        -0.7779876312       14.0261279577       28.7655632202
  H         5.7852051302       15.3140293937       23.6418781698
  H         4.7023464854       14.5977480280       22.5978406799
  C         6.6561876646       13.5608542079       22.6143948856
  N         1.8402971471        6.5055982746       20.6480313178
  C         2.6136711643        6.9955822034       18.4716386052
  C         3.0950235021        9.2143790245       17.6230487341
  H         2.8072924185       10.8061161513       18.8280044888
  C         0.2588339901        8.9810782395       28.7024064468
  C        -2.0489678941        9.2538767757       27.9009259195
  C        -1.2992948456       11.8585903628       30.1250535169
  C        -1.2773427281       13.2346222459       30.2014333177
  H         7.2941897804       14.3961492456       22.1893174076
  H         7.3180637416       13.1049172694       23.3624996543
  C         6.2485265622       12.6199657241       21.5468470631
  S         2.0108194156        5.0738585466       19.8500976342
  N         2.5162684603        5.5949066076       18.3870696029
  C         2.9535555085        7.7824654667       17.3451824636
  H         3.3507427935        9.8535625391       16.7820169731
  H         0.5837255989        8.1513062310       28.0368664098
  H        -0.1147191848        8.5349611903       29.6446460589
  C         1.5200885772        9.7688433756       29.0899733844
  H        -1.9768682243        8.5348386781       27.0744952667
  H        -2.2516079426        8.6709955209       28.7732267364
  C        -3.1993389215       10.1620634566       27.7335769487
  H        -1.4611632955       11.0704179440       30.8787851815
  C        -1.4768633950       13.9386594323       31.4773743700
  H         5.2812971782       12.2157221587       21.9962834046
  H         6.9440875354       11.7797717469       21.4979361219
  C         5.8884282879       13.2545404822       20.1525428684
  C         3.1911978896        7.1256995378       16.1012772645
  H         1.9213958205       10.4181020680       28.3237077382
  H         1.2807510302       10.3249710281       30.0177756089
  C         2.6890283600        8.7593467295       29.4452745651
  H        -3.0644050578       11.0612708913       27.0591309547
  H        -3.3996344651       10.6732156091       28.7233763722
  C        -4.3669826506        9.4240010084       27.1761395254
  C        -1.5161936589       15.3336829128       31.6072096372
  C        -1.6371828711       13.2325535594       32.7498918959
  H         5.2205616519       12.5006307528       19.7435538937
  H         5.2804761005       14.1733123839       20.2072259196
  C         7.0789597920       13.5789343803       19.2617079767
  H         3.2122063832        6.0367510661       16.2302704558
  C         3.5058144505        7.5230529666       14.8355358642
  H         3.0771595653        8.2718148394       28.5505333509
  H         2.2768816864        8.0412036672       30.0831899267
  C         3.7778569705        9.3789209671       30.3080746117
  H        -4.0296673399        8.8966854265       26.3217392249
  H        -4.8197191757        8.7056561165       27.8790057373
  C        -5.5132147805       10.3769081659       26.7511560026
  N        -1.2929840559       16.2589267179       30.5570274176
  C        -1.8330030757       15.9938409835       32.8011701863
  C        -1.8606010219       13.8672058631       33.9635626810
  H        -1.5338917008       12.1111843320       32.7516426507
  H         7.0017349621       14.4277988710       18.5712239210
  H         7.8415935743       13.7717570151       19.9649527155
  H         7.5050991129       12.7646633273       18.6542486141
  S         3.8118821062        9.1040692680       14.4729538071
  C         3.4711591375        6.5941463158       13.6959457211
  H         4.1560656638       10.3529351493       29.9195879962
  H         3.4264083100        9.6169556343       31.2756924148
  C         4.9612851675        8.3920838404       30.4159824453
  H        -5.1281353853       11.2408421943       26.1921975954
  H        -5.9912523033       10.7098801106       27.6305326189
  C        -6.4714110022        9.6992216091       25.8702177401
  S        -1.3957918340       17.7063264767       31.2404825140
  N        -1.9103867869       17.3676724891       32.7005081883
  C        -2.0226254174       15.3449355638       34.0611055342
  H        -1.8856673445       13.2711714435       34.8212597201
  C         3.7898720204        8.5930806423       12.7732403485
  N         3.7685747381        7.2384247611       12.6031389247
  O         3.3255437939        5.4016040002       13.7723577618
  H         5.8655131116        8.8506380688       30.6898936247
  H         5.2009490700        7.9854162549       29.3961987162
  C         4.7075662090        7.2521720600       31.4580415634
  H        -5.7786323208        9.1589542338       25.1706579176
  H        -7.0987989493        8.9803429819       26.3767343370
  C        -7.3496341085       10.6959871086       25.1290976592
  C        -2.2187460847       16.1489341886       35.1604384878
  S         4.2964943734        9.4880408792       11.3978185937
  C         3.6492994701        6.5570329288       11.2870255375
  H         5.2352668127        7.5245527779       32.3450607699
  H         3.6976433629        7.0850497718       31.6860731470
  C         5.2257395657        5.9067199216       30.8865875852
  H        -6.7843951291       10.9640563422       24.2644294972
  H        -7.5819632180       11.5831502900       25.6550650750
  C        -8.7237316017       10.0983821161       24.7577916642
  H        -1.8225208095       17.1629425801       35.1056237028
  C        -2.8282899000       15.9185549696       36.3412342586
  H         4.2679011378        7.0936251078       10.5808775796
  H         4.0592178318        5.5165217443       11.3117650451
  C         2.2403428867        6.3969105201       10.8626345660
  H         4.7028560053        5.6711584299       29.9683482905
  H         4.9713029691        5.0991801015       31.5658516444
  C         6.7365897026        5.8774883058       30.6333985668
  H        -9.0555164601       10.5519021085       23.8202050206
  H        -8.4691290412        8.9700659556       24.5461040912
  C        -9.7396018777        9.8871469682       25.8850787809
  S        -3.5369820733       14.4656551340       36.7413892940
  C        -2.8309172278       16.9042017307       37.4089653956
  H         1.5217374195        5.8686542585       11.5524466323
  H         1.6458396000        7.2638589799       10.7276309665
  H         2.2895343822        5.9852508762        9.8361509234
  H         7.1056219934        5.9200959017       31.6801850004
  H         7.0910813973        6.6832555092       30.0051701745
  H         6.9636491969        4.9397127318       30.1542180319
  H        -9.2793406235        9.7189091056       26.8363934569
  H       -10.5612767363        9.1741864359       25.7494058307
  H       -10.2422528829       10.8649853858       26.0444884580
  C        -3.8224786351       15.1492144869       38.3411130082
  N        -3.5033515746       16.4577887418       38.4299793663
  O        -2.3554990877       18.0244786759       37.2939194396
  S        -4.7938873990       14.4904284364       39.6190593380
  C        -3.6501398835       17.3807169113       39.6404200264
  H        -3.6164430443       18.4792163294       39.3601143066
  H        -4.5901517647       17.1611940508       40.2218465635
  C        -2.4378559165       17.1874333939       40.6013796823
  H        -1.5188097360       16.9533841653       40.0010523899
  H        -2.3206974366       18.0451475053       41.2123129962
  H        -2.5698097990       16.3876877954       41.2461512529
  H         7.2455869841       11.4315242635        3.9838556219
  C         7.6813838988       10.4089661749        3.9370668608
  H         6.9282310541        9.7293276761        4.0145285531
  C         8.6280103096       10.1906605503        5.1381524926
  C         8.3500631485       10.3095742729        2.6046301790
  C         8.0186302561       10.4608188637        6.5360396494
  H         9.0711563322        9.2380504220        4.9911392323
  H         9.4226300718       10.9767414026        5.0788959362
  H         9.2871564072       10.8282134045        2.5350569906
  H         7.7212275076       10.7977353313        1.8038091470
  H         8.3987983024        9.2453924130        2.2864407220
  C         7.0984791201        9.2379038372        6.9477530565
  H         8.7606353670       10.6480370970        7.3119750174
  H         7.5215789404       11.4138880928        6.6124306813
  C         6.2583773645        9.6141837105        8.1398121268
  H         7.6983451058        8.3426862808        7.2111099134
  H         6.4876281594        9.0247036298        6.0623193239
  C         5.0587361360       10.4779624941        7.9382229831
  H         6.9802488259       10.2194956430        8.7200375887
  H         6.1216984252        8.7983728980        8.8751905899
  C         3.9102071421        9.7618269853        7.0443441954
  H         4.6863831584       10.7594797406        8.9382849555
  H         5.3042061262       11.4059130886        7.3733735206
  C         2.6479096035       10.5973932519        6.9998402608
  H         3.5814463793        8.8094141973        7.5046438348
  H         4.3164092517        9.5561209898        6.0139018907
  C         3.0034478513       11.9212997733        6.3269066447
  C         2.1812925360       11.1928976761        8.2215217789
  C         1.5703315953        9.8190568195        6.2784858971
  C         2.6728495669       12.9536431990        7.1117099777
  C         3.6009704602       12.2808472667        5.1332773381
  C         2.1361276921       12.5530992978        8.3181162272
  C         1.7157627250       10.5011093976        9.3223758939
  H         1.9927194325        9.2752967772        5.4523868244
  H         1.1068840590        9.0847746653        6.9727822570
  C         0.4025807703       10.6625490499        5.8304639321
  S         2.9887813880       14.5258809119        6.3987037671
  C         3.6703851706       13.6704988767        5.0955518546
  H         3.8318672385       11.4789479263        4.4715035873
  C         1.7190523938       13.1262262220        9.4580495278
  H         1.6558722793        9.3868572301        9.2633002046
  C         1.3943387892       11.1134146667       10.5403745611
  H         0.6518644625       11.5754884874        5.3054295574
  H        -0.1682173405       11.0553592328        6.7266929930
  C        -0.4922131456        9.9390785360        4.9221431657
  C         4.1149844422       14.4186473148        3.8401043556
  C         1.4627626126       12.4577713992       10.6751605003
  H         1.8051426245       14.2325541092        9.4786612753
  C         0.9582187832       10.7456497651       11.8340283482
  H        -1.5072792448        9.9422371955        5.3931357440
  H        -0.2236333267        8.8923822370        4.7386052098
  C        -0.7325155815       10.7057786286        3.6883738702
  C         4.0077441519       15.8458293777        3.6250307800
  C         4.6007964060       13.6271933822        2.6704753023
  C         1.1761504055       13.1590661429       11.9722552196
  C         0.9011065559       11.8205579698       12.6890168567
  S         0.6457652398        9.1972678479       12.5469142619
  H         0.2292188248       10.8316660196        3.1931025140
  H        -1.1907360926       11.6405756329        3.8934397401
  C        -1.5967441513        9.8806290255        2.7922979589
  N         3.7389960199       16.7863649089        4.5661733324
  C         4.1742095088       16.4581218077        2.3810552276
  C         4.8585532809       14.2338645046        1.4592389080
  H         4.7394416001       12.5320587155        2.6776880358
  C        -0.0162185821       14.1806564302       11.8732047894
  C         2.4124201974       13.8555443484       12.6381271501
  C         0.5426721160       11.4166105927       14.0036215507
  C         0.3836751231       10.0750436949       14.0871786290
  H        -2.1495739169        9.1140193892        3.3723643929
  H        -2.2200469317       10.6455699913        2.3299785559
  C        -0.7122203082        9.1221311058        1.8119673255
  S         3.7491586181       18.2969553821        3.8684846604
  N         4.0924598873       17.8759904072        2.3609934933
  C         4.6811498825       15.7191580287        1.2631390154
  H         5.2759391499       13.5618752633        0.7269054106
  H         0.2744222586       14.9392227519       11.2100944098
  H        -0.1651198859       14.6298723763       12.8173877970
  C        -1.3776466621       13.4921226778       11.3689763788
  H         2.8027877496       14.5853847829       11.9839537126
  H         1.9455260429       14.3948718882       13.5370438842
  C         3.6696600412       13.0506361136       13.0735761870
  H         0.5110245164       12.1306836686       14.8275293287
  C         0.0654523093        9.2760228423       15.3030206998
  H        -1.2742364063        8.2540069617        1.5864749008
  H         0.1859909943        8.8016794671        2.2616981100
  C        -0.3525981035        9.9485361244        0.4885437042
  C         4.9847789205       16.4299793201        0.0591310533
  H        -1.1364495001       13.0289166203       10.3992655931
  H        -1.8501181069       12.7273382941       11.9358671771
  C        -2.5427581305       14.3088856320       10.9525412788
  H         4.2007882722       12.7759006014       12.1415789171
  H         3.6035380422       12.0991425068       13.5928113169
  C         4.6351108576       13.8418726251       13.7711159525
  C         0.0858984525        7.8339131056       15.4798114940
  C        -0.2531907497       10.0575893550       16.5714426661
  H        -0.1512780237       10.9413194349        0.9469819099
  H         0.6006947514        9.5066074891        0.0994053458
  C        -1.4226077889       10.0498571276       -0.6026849014
  H         4.8138666092       17.5058031421        0.1415003622
  C         5.2760157840       16.0544901398       -1.1901267604
  H        -2.0234433699       14.9595033912       10.2061401592
  H        -2.9546305958       14.9947459364       11.6787297482
  C        -3.6903290301       13.5561065134       10.2243339077
  H         4.9345725139       14.7392304386       13.2846268096
  H         4.1838782325       14.2248032587       14.6686628716
  C         5.9085720342       13.0829059182       14.1649473379
  N         0.3415832122        6.9192014837       14.4293307923
  C        -0.2705050437        7.2116721198       16.6731288974
  C        -0.4896848048        9.4417699423       17.7723226026
  H        -0.2169334366       11.1841015590       16.5999539710
  H        -1.5704101797       11.0787063719       -1.0219071522
  H        -2.3419446332        9.8433969343       -0.1174941730
  H        -1.4296831022        9.4032241916       -1.4476709858
  S         5.4430177453       14.4631876946       -1.7899991285
  C         5.3219942713       17.1312815231       -2.1872011375
  H        -3.1737411202       13.0326690435        9.4035119352
  H        -4.1708354241       12.7665227992       10.8447177803
  C        -4.8558756286       14.3251643664        9.6637987732
  H         6.1334940408       12.3393403306       13.3429716371
  H         5.5886736084       12.5857139949       15.1065862944
  C         7.0375297134       14.0491829784       14.3694811104
  S         0.1704680574        5.4352981975       15.0504615844
  N        -0.3156727410        5.8062138655       16.5390681463
  C        -0.6208570325        7.9290311797       17.9069932034
  H        -0.7239628997       10.1714696246       18.5473029639
  C         5.7377969710       15.1892556660       -3.3049307035
  N         5.5980855553       16.5338355161       -3.3666645583
  O         4.9314639364       18.3033456065       -2.0097648013
  H        -5.2334771935       15.0248520636       10.3826824389
  H        -4.4171461726       14.8837971034        8.8094173051
  C        -5.9511696072       13.4656743819        9.0576558367
  H         7.8957160350       13.5024490261       14.5654621989
  H         7.0544670587       14.4482588811       13.3623695997
  C         6.9273284950       14.9664870789       15.5818438549
  C        -0.9130110773        7.1590031703       19.1106138329
  S         6.1011613975       14.3956067104       -4.8245028082
  C         5.3648340420       17.2931596882       -4.6056872345
  H        -5.6600026782       13.4201252941        8.0235301993
  H        -6.0350085554       12.4441248342        9.3678035307
  C        -7.2775353224       14.2360729395        8.9455187106
  H         7.3575853827       14.3936861627       16.4018844950
  H         5.8383974324       15.0921939586       15.7949624251
  C         7.6509461293       16.2577956526       15.4690283810
  H        -0.6336934688        6.1685276406       19.0340528283
  C        -1.4419646663        7.5399694263       20.3001541741
  H         6.1976408936       16.9418755329       -5.1958382012
  H         5.6694499031       18.4068455992       -4.4250094189
  C         3.9797710394       17.0699132927       -5.1913172681
  H        -7.9558507581       13.7897553721        8.1591857516
  H        -7.1947899818       15.3828368519        8.7351012907
  C        -8.1170909134       14.0962058737       10.2402367249
  H         7.8160144990       16.6563393710       16.4669242935
  H         8.6623834958       15.9954129782       15.0741311692
  C         6.9491018775       17.2782779505       14.5701203632
  S        -1.9775150348        9.0456835467       20.6538873127
  C        -1.6406981469        6.4504094754       21.2361391482
  H         3.1577002731       17.3022069214       -4.4662953609
  H         3.8124419020       16.1650307196       -5.6621190773
  H         3.8629483385       17.7926839740       -6.0065493881
  H        -8.3289433164       13.0318509494       10.3704639721
  H        -7.5275941345       14.5005318685       11.0538005135
  H        -8.9584947734       14.7141915833       10.1777092432
  H         7.2333063340       17.2997738060       13.5325971730
  H         5.9386673733       16.8995115149       14.3680064283
  H         7.0501857954       18.2946694440       14.9672611538
  C        -2.4479494007        8.3202269517       22.1940440579
  N        -2.2828481978        6.9892938432       22.3167851228
  O        -1.1878130923        5.2882910650       21.1173097097
  S        -2.9979051698        9.2849605676       23.5383925740
  C        -2.3648230443        6.2270397404       23.6562027964
  H        -2.5737603822        5.1987858048       23.4081838854
  H        -3.2029866567        6.4748686174       24.3653837174
  C        -0.9805488717        6.2814673962       24.3627997820
  H        -0.2228519867        6.8031892724       23.9026909217
  H        -0.6533339730        5.3268350429       24.5716670985
  H        -1.0569072972        6.8031923382       25.3242256112
