352
i =
  H        -3.9320531103       14.5047356158       16.3079022005
  C        -3.3809855718       13.5824538065       16.1408698158
  H        -4.1999064829       12.8841740776       16.3058189123
  C        -2.3024263166       13.5153630363       17.1558113725
  C        -2.9436322105       13.5515542717       14.7274015721
  C        -2.7536853107       13.6675873552       18.6198426368
  H        -1.5762214060       12.7390408829       16.9839065222
  H        -1.7031916852       14.4315329104       17.0479281865
  H        -1.9183357099       13.6596941243       14.6969879154
  H        -3.2418523967       12.5751165196       14.2640695729
  H        -3.3759702823       14.3354247104       14.1381006350
  C        -1.5673532614       13.7813584498       19.5054134196
  H        -3.2681852912       12.7351001667       18.7613310605
  H        -3.4243691333       14.4874711758       18.7108193912
  C        -2.0632286046       13.7523159869       20.9618479560
  H        -0.8429373106       13.0304065309       19.2033541047
  H        -1.1322907671       14.7676947424       19.2989324932
  C        -1.0228565980       13.1001143802       21.8367451808
  H        -2.9468471844       13.1550538411       20.9161102503
  H        -2.4662706805       14.7462967341       21.2183585811
  C         0.2145740928       14.0200478051       22.1872772859
  H        -1.5917134447       12.8244959888       22.7176843129
  H        -0.7872125479       12.1761002570       21.3264025217
  C         1.3472286511       13.3139121457       22.9494909484
  H         0.5571090713       14.2837232750       21.1548425786
  H        -0.0783521312       14.9015017355       22.6730971386
  C         1.7056738380       11.9529462606       22.2863014102
  C         0.7907709573       12.6494150954       24.1397044252
  C         2.6045336313       14.3098984976       23.2114974587
  C         1.3802056892       10.8687110710       23.0688398162
  C         2.1634877802       11.5748746866       20.9909983005
  C         0.6976900775       11.2767203692       24.2048992641
  C         0.3948023044       13.3135830053       25.3129393534
  H         2.6655989237       14.9855642835       22.4411328387
  H         2.4269214915       14.8650834479       24.1561654386
  C         3.9117323069       13.6123503123       23.3747415905
  S         1.6770284137        9.3600604255       22.4254286007
  C         2.2269648261       10.2022296915       20.9455861537
  H         2.4667917330       12.3988733456       20.3047552979
  C         0.2929265971       10.7248747149       25.3800118244
  H         0.4266769869       14.3702384811       25.3006201269
  C        -0.0311189817       12.6550880223       26.4570802062
  H         4.1267803871       12.7692922658       22.6785061576
  H         3.8683022221       13.1046777667       24.3017114140
  C         5.1102854647       14.4809840634       23.6612423895
  C         2.5890875092        9.4971921825       19.6687672297
  C        -0.1035991552       11.2962259477       26.6276954791
  H         0.5034781638        9.6450624495       25.2888821374
  C        -0.4795391132       13.1106665356       27.7201038984
  H         5.6584256909       14.1753680617       24.5297928846
  H         4.8175443994       15.4496045572       24.0900137662
  C         6.2173502864       14.7607234853       22.5851692523
  C         2.6136889925        8.1320428005       19.4137821772
  C         3.1073746723       10.4272453534       18.5900716266
  C        -0.5641439435       10.6295511557       27.9031119706
  C        -0.7205656178       11.9913999530       28.5470681226
  S        -0.7755388219       14.6716326381       28.4703945053
  H         6.9762051507       15.3490354247       22.9443818305
  H         5.9377776964       15.4161784310       21.8470900058
  C         6.7194907800       13.4126662059       21.9161802193
  N         2.1226097599        7.1630953485       20.2919764101
  C         2.9403917836        7.5879830982       18.1544955191
  C         3.4314076659        9.8380069311       17.3646636699
  H         3.2126585166       11.4741068708       18.6727856524
  C         0.5078293472        9.6136821834       28.5545227385
  C        -1.8237612729        9.8887499950       27.6295936441
  C        -0.9878921154       12.4455486717       29.8574886541
  C        -1.1316145250       13.7831650996       30.0006557552
  H         7.7800804546       13.2897234337       21.9975730595
  H         6.3350420428       12.5738423672       22.4063172601
  C         6.2015370959       13.3407923242       20.4384142220
  S         2.2941173759        5.7549981334       19.5081790025
  N         2.8213342787        6.2098611626       18.0927478046
  C         3.3833768279        8.3849123036       17.1021871316
  H         3.7824468715       10.5731116622       16.7215626404
  H         0.7644530557        8.8890834613       27.8148746340
  H         0.1247740778        9.1233471636       29.4489545732
  C         1.8727757167       10.3971231429       28.8311664992
  H        -1.7034161107        9.0119311597       27.0850905603
  H        -2.2275736808        9.4797255273       28.5889978178
  C        -2.9514380428       10.6757847764       27.1814414830
  H        -1.1687442852       11.6779283478       30.5665405146
  C        -1.4862377413       14.5116271577       31.2375934780
  H         5.3411264069       14.0260570594       20.3287659868
  H         5.8786838136       12.2697089475       20.2683025311
  C         7.2676700317       13.7336115127       19.5375337791
  C         3.5539998114        7.7244722313       15.8425143621
  H         2.1973985187       11.0965125481       28.0046061520
  H         1.8810924175       11.0173329120       29.7153609981
  C         3.0384131547        9.4666583468       29.1209352433
  H        -2.7423265646       11.1934884441       26.2763105780
  H        -3.1276389249       11.3900804355       27.9496609446
  C        -4.2314927529        9.7489981993       26.9626850404
  C        -1.6517723856       15.9031334185       31.4790970466
  C        -1.6032629337       13.7010124901       32.4729823420
  H         7.5687457645       14.7574447539       19.7718443777
  H         8.1596149265       13.1128189297       19.8087951833
  C         6.7432788172       13.4931036386       18.1263781458
  H         3.3555950852        6.6317540984       15.7840509544
  C         3.7928879582        8.2260406516       14.5627558670
  H         3.2564373240        9.0119308965       28.1886425428
  H         2.7096839664        8.7270516669       29.7713842290
  C         4.1745886120       10.1989567944       29.7083523408
  H        -4.0057259762        9.2086073291       25.9964092820
  H        -4.1837592711        9.1236126979       27.8074656932
  C        -5.6471276703       10.4058153313       26.8587202141
  N        -1.3414833935       16.8841973878       30.5206776439
  C        -2.1478569555       16.4777550831       32.6345037000
  C        -2.0158812485       14.2677996579       33.6669066883
  H        -1.5531426174       12.6128279160       32.5827704662
  H         6.3114127291       14.4615843974       17.8155230422
  H         7.5917507862       13.3693407528       17.4447480614
  H         6.0482590312       12.6823117046       18.1188783376
  S         4.2136575676        9.8961821735       14.1791285719
  C         3.8426985628        7.2378684382       13.5078813367
  H         4.1691964557       11.1745451417       29.2798419845
  H         4.1265574134       10.1926641166       30.7586276517
  C         5.4494428267        9.5276837735       29.3112092012
  H        -5.4726211950       11.3144257897       26.3165168472
  H        -6.0551986766       10.6457201669       27.8194337455
  C        -6.7390243905        9.6438863093       26.0198669480
  S        -1.6392395869       18.3615960313       31.0866776512
  N        -2.2896570002       17.8913174516       32.5153574763
  C        -2.4096503142       15.6656174944       33.7842320101
  H        -2.0558617983       13.5549956246       34.4868550167
  C         4.3734940027        9.2458429678       12.5501840523
  N         4.2129509401        7.8986522765       12.3985326211
  O         3.6966781331        6.0413184279       13.5737218223
  H         6.2121532136       10.2657027683       29.2673524881
  H         5.3685395865        9.1551515066       28.3468057584
  C         6.0708137522        8.5284087423       30.3065291043
  H        -6.4137878818        8.9678338035       25.2494765101
  H        -7.3764126126        9.0869061771       26.7319629224
  C        -7.6214035223       10.7098470608       25.4666608657
  C        -2.8278316484       16.3067192787       34.9619614908
  S         4.6726169919       10.2467001681       11.1467549662
  C         4.2239335128        7.1361483294       11.1377328679
  H         7.1033660354        8.4601428255       29.9878722073
  H         5.8450006875        8.8665601351       31.3240128373
  C         5.5202572303        7.1392110201       30.1736298961
  H        -6.9935898732       11.2524766092       24.7939149530
  H        -7.9414643365       11.3895747840       26.2166663919
  C        -8.9961922317       10.1300591889       24.9594478974
  H        -2.8905604721       17.4153090897       34.8024482349
  C        -3.4136690375       15.8015024718       36.0935865078
  H         4.7410396230        7.7458623300       10.3797234098
  H         4.8325927286        6.2928957721       11.3215785013
  C         2.8684745060        6.8507769783       10.6726460463
  H         5.3995894010        6.7945753288       29.1341520086
  H         4.5016374331        7.0476852181       30.5602842754
  C         6.2924210882        6.0321645695       30.8886571076
  H        -9.3484902895       10.8630890144       24.2490577785
  H        -8.7983644392        9.2821455885       24.4008818460
  C        -9.8961947481        9.9889815507       26.1925894458
  S        -3.8553258204       14.1496481889       36.2961667582
  C        -3.6934923720       16.7006071754       37.2311284499
  H         2.8504343580        6.8176593629        9.5690054580
  H         2.4973743178        5.8845116427       10.9818727435
  H         2.1370164512        7.6017508642       11.0609350858
  H         6.4856083405        6.2661829198       31.9663668679
  H         7.2684369745        5.7543591749       30.4594388852
  H         5.7478170540        5.1108666349       30.9247649225
  H        -9.5091193908        9.3023970327       26.9877311478
  H       -10.8844146519        9.7140778929       25.8001236178
  H       -10.1875655589       10.9263129827       26.6655665402
  C        -4.4091813624       14.6561698121       37.8831517769
  N        -4.3649141212       15.9392925755       38.1459823031
  O        -3.3795619404       17.8281097126       37.3366770130
  S        -5.0363823331       13.5059817179       39.1625907703
  C        -4.8462871535       16.5558929800       39.3780797993
  H        -5.0614713243       17.5527500709       39.0615250856
  H        -5.7328834637       16.0863417777       39.8907505336
  C        -3.7271597867       16.6562051533       40.4501922435
  H        -3.3976239327       17.6659719799       40.5499833516
  H        -4.1165107979       16.3973289185       41.4218485698
  H        -2.9140252710       16.0657585559       40.1816347230
  H         7.6213431724       11.5050275857        3.5038326621
  C         8.3804999425       10.7803610082        3.4057040236
  H         7.6692446720        9.9679638742        3.2980617855
  C         9.2171802916       10.8874169030        4.6712831989
  C         9.1220302143       11.1768097138        2.1510977397
  C         8.2893714143       11.1737771999        5.8622975637
  H         9.9081491671       10.0646473853        4.8069824901
  H         9.8364431411       11.7682979440        4.5945403190
  H         9.9528657026       11.7899181123        2.3263925084
  H         8.3669838407       11.5931468046        1.5002775075
  H         9.4633149912       10.2582239242        1.7374963301
  C         7.5652765364        9.8864931349        6.4237126125
  H         8.9735537230       11.5548708550        6.7093572697
  H         7.5954189936       11.9006835015        5.5334005478
  C         6.8284269766       10.2184327434        7.7422916208
  H         8.2628058974        9.0900989238        6.6227572495
  H         6.8971889210        9.4769332407        5.7035881893
  C         5.5845816737       11.1133686351        7.6531557142
  H         7.4925227041       10.6827555347        8.4408912358
  H         6.5630832001        9.2610870961        8.2287947517
  C         4.3781672384       10.3919788373        7.0053090105
  H         5.2839802315       11.5419301318        8.5707568246
  H         5.9425108458       11.9650248030        7.0998537083
  C         3.1473800881       11.3894307684        6.7942280644
  H         4.0388354620        9.5408864734        7.6157349312
  H         4.6126740463        9.8413897505        6.0633986663
  C         3.5036448187       12.7045909914        6.1564805390
  C         2.7525212535       12.0703664364        8.0608108477
  C         1.9928640208       10.7788290505        6.0619029595
  C         3.2082472964       13.8301089001        6.9452917660
  C         4.0108127596       13.0544817779        4.8545605994
  C         2.7581562029       13.4416752142        8.1769398683
  C         2.2013749558       11.5340116478        9.1692613370
  H         2.4717345156       10.5335216246        5.1499717486
  H         1.6214968613        9.8408769448        6.5376516034
  C         0.7869220652       11.6354842917        5.6375209952
  S         3.4301810577       15.3049026296        6.0588638645
  C         4.2125065371       14.4157173601        4.7477541870
  H         4.2286469431       12.2777760341        4.1084686672
  C         2.3313878929       14.1038032549        9.2809630307
  H         2.1372882201       10.4778888275        9.1462923414
  C         1.8632193749       12.1128490272       10.3609684668
  H         0.9064925124       12.7052249044        5.6982389614
  H         0.0964550719       11.4989516483        6.5001784353
  C         0.0003619298       11.3015805632        4.3971645447
  C         4.6866670708       15.1427940271        3.5163232351
  C         1.8879377730       13.4346598836       10.4617222111
  H         2.3804251312       15.1872351315        9.2220672447
  C         1.4238450788       11.7157821616       11.5825093236
  H        -0.5867701603       12.2406565994        4.1968111437
  H        -0.6495823964       10.4502529995        4.5819510834
  C         0.8361106981       11.0209943446        3.1174762750
  C         4.6457764462       16.5150261613        3.2922426777
  C         4.9841461278       14.3365502689        2.3022617390
  C         1.4202851358       14.0921596588       11.7210425826
  C         1.2084056127       12.7518483731       12.4653818773
  S         1.0475467373       10.2137445956       12.2370151491
  H         1.5575168145       10.1620539989        3.1504638689
  H         1.5148457461       11.8659884598        3.0649617588
  C        -0.0855941745       10.6181213305        1.9294594844
  N         4.2537224322       17.5139105246        4.2264315785
  C         4.9804742665       17.1157965382        2.0665251605
  C         5.2160097640       14.9716730850        1.1072062329
  H         4.9969546927       13.2597247293        2.3473136199
  C         0.0267447585       14.7377092641       11.6265192700
  C         2.5167824119       14.9795381614       12.4622940360
  C         0.7859142860       12.2603680092       13.7321853172
  C         0.7720536865       10.9132933418       13.7518876420
  H        -0.6983720361        9.7691464552        2.3543935390
  H        -0.7539199508       11.3414263515        1.6947479899
  C         0.6962950018       10.1258634427        0.7109583101
  S         4.3499503089       18.9852490027        3.5610291177
  N         4.9229362036       18.4882147439        2.0964099979
  C         5.2273254327       16.4386701866        0.8821919539
  H         5.5660646064       14.3136267436        0.3988583329
  H        -0.0201372639       15.4841527081       10.8377519748
  H        -0.2439324521       15.3006554872       12.4818216433
  C        -1.1225942971       13.7908629784       11.2206016577
  H         2.4499480799       15.9882098700       12.1307110110
  H         2.3231822955       15.0506691304       13.5608617575
  C         3.9395691430       14.4105341689       12.4350648940
  H         0.4966015427       12.9245889285       14.6033857085
  C         0.3886291544       10.1258655288       14.9297499251
  H         0.6667614284        9.0246799894        0.6708512830
  H         1.7332698964       10.2607431780        0.7371143595
  C         0.1759458175       10.7947679717       -0.5712890734
  C         5.4188901190       17.1003517479       -0.3873695963
  H        -0.8662342222       13.1716095464       10.3072583033
  H        -1.3879230948       13.1358693764       12.0546165486
  C        -2.3540097722       14.6708733102       10.9106623293
  H         4.4075995766       14.6205260829       11.4777620468
  H         3.9095859245       13.3145175384       12.5343310828
  C         4.7435591643       15.0383763374       13.5828983902
  C         0.2531371340        8.7252862796       14.9883348877
  C         0.2650425321       10.8063879933       16.2546741453
  H         0.1140731017       11.8410053206       -0.3127249466
  H         0.9295880532       10.6358893074       -1.2858466058
  C        -1.2469476907       10.3597825752       -0.9460259078
  H         5.4003211521       18.1351255331       -0.3931350567
  C         5.7331459884       16.6099232986       -1.6217397647
  H        -2.2451030679       15.7315838517       10.5590057933
  H        -2.6335403832       14.8556573504       11.8982784448
  C        -3.3022062750       13.8717746595       10.0741507495
  H         4.1789865381       15.8304871538       14.0355896835
  H         4.9530867957       14.2264864913       14.2462200691
  C         6.0731723396       15.5923214100       13.1734553186
  N         0.4782275160        7.8521401469       13.8882755214
  C         0.0570520264        8.0177775416       16.1538990017
  C        -0.1836237277       10.1884475194       17.3859277476
  H         0.3037322610       11.8351341577       16.2932019681
  H        -1.5336475931       10.6500368358       -1.9644387721
  H        -1.9549730098       10.9165038603       -0.3175746078
  H        -1.1498161874        9.2560614845       -0.8756892065
  S         5.9962196874       14.9698269326       -1.9605725435
  C         5.9711117729       17.5420607450       -2.8020938368
  H        -2.8661757912       13.9137327868        9.0681692955
  H        -3.4097424039       12.8282644619       10.4833779460
  C        -4.6449274216       14.5140102149       10.0261684595
  H         6.0322864465       16.3768543733       12.3902906443
  H         6.7430236574       14.8296748658       12.8853912152
  C         6.6741330983       16.2761010711       14.3437318052
  S         0.4959584867        6.2872239223       14.4836692203
  N         0.0714608278        6.6010109980       15.9986754767
  C        -0.2390322506        8.6813029406       17.4372544602
  H        -0.3875252422       10.8741025271       18.1931099263
  C         6.2094988504       15.4827488514       -3.6097832106
  N         6.2846908634       16.8343469006       -3.8372071376
  O         5.9547911409       18.7647348539       -2.6840467478
  H        -5.0799819674       14.4625545291       11.0112908492
  H        -4.5567683783       15.6089926162        9.8489940876
  C        -5.5559839484       14.0156570591        8.9604960536
  H         6.1964379332       17.1710347413       14.4901857533
  H         6.5030813906       15.7789492883       15.2828300022
  C         8.1781787587       16.6502035393       14.0954488708
  C        -0.5570801212        7.8045851771       18.5015818861
  S         6.5958200943       14.3842895564       -4.9088501039
  C         6.2481272113       17.4377855366       -5.1453101847
  H        -5.0517152836       14.0967477584        7.9767434689
  H        -5.7463495287       12.9128104062        9.0255463903
  C        -6.9271391203       14.7789945802        8.9132922043
  H         8.4977602934       16.4671693115       13.1041704672
  H         8.6983952105       15.9683396719       14.8577265840
  C         8.2399427244       18.1320794390       14.3815962224
  H        -0.5910317092        6.7531140540       18.2161983253
  C        -1.1413423554        8.0797465936       19.7323589465
  H         6.7031412650       16.8235830726       -5.8852826776
  H         6.7926183660       18.4367881078       -5.2161125441
  C         4.7725223928       17.6676732413       -5.5950265065
  H        -7.5721426133       14.6263901382        7.9911503220
  H        -6.5956589479       15.8430431400        9.0197851474
  C        -7.8025099726       14.4332015326       10.1198194984
  H         9.2950638071       18.5142875163       14.1650724384
  H         7.6030348083       18.6097886372       13.5993570761
  C         7.9622612632       18.4428032294       15.8542450147
  S        -1.5818390890        9.5979219318       20.3898198926
  C        -1.3557876888        6.9375381071       20.6024263422
  H         4.0054761789       17.8123602423       -4.7743876552
  H         4.4272085587       16.8915814230       -6.2911963385
  H         4.7897296432       18.5881744061       -6.1852950122
  H        -7.6285250990       13.3965056718       10.4506057200
  H        -7.6569450832       15.1078528797       10.9789075780
  H        -8.8212537808       14.6717889515        9.6467520131
  H         8.5019213518       17.7441644423       16.4676867800
  H         8.3367222214       19.4450834521       16.1065988707
  H         6.9353388320       18.3532809887       16.1847923396
  C        -1.8339688394        8.7582069791       21.9303403308
  N        -1.7301191690        7.4104105477       21.8801064583
  O        -1.0277408889        5.7863990587       20.2779306684
  S        -2.4298809037        9.5063211215       23.3612439453
  C        -1.8859405833        6.4975998587       22.9703842202
  H        -2.2743943632        5.5928773559       22.5212341303
  H        -2.7518185686        6.7333792052       23.5886227632
  C        -0.6439375541        6.2565923063       23.8227967023
  H        -0.6007396849        6.9238520199       24.6685040430
  H         0.1475482589        6.4033320854       23.1294377046
  H        -0.5532776362        5.2247767861       24.1100999791
