352
i =
  H        -2.9751289865       15.0196445708       16.6116576851
  C        -2.6192210218       13.9349638370       16.6649632689
  H        -3.5579870573       13.4065407204       16.8727127315
  C        -1.7911206845       13.6895756174       17.8489228084
  C        -1.9016331105       13.5318432585       15.3802709177
  C        -2.4137111529       14.2923248401       19.1215679062
  H        -1.8028637168       12.5952442579       17.9924416275
  H        -0.8001242715       14.0920091635       17.7013411913
  H        -2.5639587384       13.4872062500       14.4853801944
  H        -1.0933175021       14.3102843104       15.1676002766
  H        -1.4882129464       12.5486351729       15.4269409199
  C        -2.3405769496       13.2009381276       20.1716385241
  H        -3.4297675351       14.5659146974       18.8860647098
  H        -1.9143786611       15.2427445301       19.5397762455
  C        -2.5681544899       13.6932484037       21.5617676390
  H        -3.0246992900       12.4279955477       19.8460322798
  H        -1.3947552052       12.6503313257       20.1488031437
  C        -1.5713287322       13.0073425734       22.5993911033
  H        -3.6322310715       13.4978376156       21.8240822353
  H        -2.4260755608       14.7794731324       21.5615428418
  C        -0.3638137985       13.8686753591       22.7585106376
  H        -1.9929459140       12.7650539814       23.5474076793
  H        -1.4081625436       12.0069477778       22.2156204340
  C         0.7735730577       13.1250221336       23.5025922301
  H        -0.0447891640       14.2510119124       21.7823466514
  H        -0.6028333618       14.7579943853       23.3503535148
  C         1.0965742965       11.8195535953       22.7671490054
  C         0.4416871997       12.3647013360       24.7320499108
  C         2.0259294641       14.0329467504       23.5803697796
  C         0.9496943663       10.6826188795       23.5372520584
  C         1.5524993850       11.4774055832       21.4281798411
  C         0.5108077105       10.9923887912       24.7800605498
  C         0.0128008552       12.9296570854       25.9129112182
  H         2.1721089046       14.4968383545       22.6142502868
  H         1.7006121082       14.9518602853       24.1129184457
  C         3.2201680634       13.2848990353       24.2045124449
  S         1.2890119050        9.2100528988       22.7304660772
  C         1.8856346673       10.1274785045       21.3408184525
  H         1.7829478781       12.2358174331       20.7356398052
  C         0.1263708400       10.3144789658       25.9211541466
  H         0.0849494535       13.9766057342       26.0045114717
  C        -0.2879840886       12.2439667556       27.0809259971
  H         3.5156633296       12.3522482848       23.7916195495
  H         2.8355806486       13.0523724437       25.2252378539
  C         4.5004794238       14.1078724274       24.3489756851
  C         2.3894977310        9.4384309402       20.1334015325
  C        -0.2982020393       10.9113794604       27.0791409500
  H         0.3171025518        9.3112280645       25.9207953455
  C        -0.7310272563       12.6890278794       28.3249820289
  H         5.0979330271       13.5543149861       25.0400437993
  H         4.2141792677       15.0085248812       24.7840968362
  C         5.2694144032       14.2883933815       23.0086817900
  C         2.4533324393        8.0959474709       19.8839038995
  C         2.7991205815       10.3521263308       18.9906494912
  C        -0.7628182990       10.2513892302       28.2970873359
  C        -0.9251137693       11.5390486993       29.0680527845
  S        -1.1370584865       14.1431752785       29.0758422351
  H         6.1663025656       14.8169130311       23.2078027790
  H         4.7619950467       14.8728724064       22.2458543628
  C         5.8654349465       13.0833328393       22.2828400689
  N         2.0811880135        7.1334798709       20.8034837071
  C         2.7398632995        7.6064044783       18.6342026385
  C         3.1216927193        9.7929446171       17.7320905263
  H         3.0030774754       11.3756977110       19.1213361017
  C         0.2908235168        9.4038385153       29.0943156929
  C        -2.0712220223        9.5057714683       28.0441937116
  C        -1.2718717909       11.9484863123       30.3897232375
  C        -1.4324723144       13.2945920043       30.5498713597
  H         6.8634381871       12.9960687625       22.5113345282
  H         5.4115146522       12.1319536504       22.4832792281
  C         5.7582713864       13.1212357150       20.7729820735
  S         2.2132544811        5.6308514080       20.1030907755
  N         2.5672353429        6.1846888089       18.5924831404
  C         3.1159448385        8.3417423471       17.5023639292
  H         3.5876398052       10.4551910568       17.0523483653
  H         0.2981987119        8.6304813456       28.3705081857
  H        -0.2276810214        8.9812755879       29.9218194698
  C         1.6234864562       10.1034829073       29.5270890238
  H        -1.7815765407        8.8386607947       27.2137789840
  H        -2.4675055497        8.8056728642       28.8351531135
  C        -3.2257815100       10.3659389894       27.5560345310
  H        -1.5377855863       11.2366203804       31.1550955115
  C        -1.8182187773       13.9422787110       31.8566496923
  H         4.8735909213       13.6852675547       20.5094612495
  H         5.5150300549       12.1011114609       20.4501309659
  C         6.9535842068       13.5995141700       19.9920886532
  C         3.1932746844        7.6656561703       16.2255557789
  H         2.0164634462       10.8859698791       28.8922944092
  H         1.2535837256       10.5664143414       30.4784112053
  C         2.7636736371        9.0725106295       29.7583187946
  H        -2.8807343231       10.9810672322       26.7205973353
  H        -3.5447338486       11.0431315794       28.3644329477
  C        -4.4204853705        9.5630994151       27.1510407090
  C        -1.9179324665       15.3344223669       32.0421336968
  C        -1.9359917016       13.1982998979       33.1383621011
  H         7.1866671675       14.6629871223       20.2656786969
  H         7.7683168672       13.0305158093       20.2949934207
  C         6.7547764569       13.3582709530       18.5352823611
  H         2.8835343191        6.6333495560       16.2108605853
  C         3.5756956761        8.1195754655       14.9428436729
  H         2.9764408074        8.5712669288       28.8337072629
  H         2.4128459448        8.2493262587       30.4115850553
  C         4.1237551302        9.6186077401       30.3310854382
  H        -4.1523607313        9.0543913512       26.2634814061
  H        -4.7406430607        8.9148096950       27.9641612921
  C        -5.5838796174       10.4513616890       26.8921488924
  N        -1.6656952648       16.2820456647       31.0382908263
  C        -2.2432556137       15.9117685979       33.2396558172
  C        -2.2770603596       13.8132360066       34.3584277135
  H        -1.7724785753       12.1438704197       33.1545898407
  H         7.6410492376       13.6561726051       17.9131563139
  H         6.6265951000       12.2614136032       18.4325189587
  H         5.8431677159       13.8311082752       18.1743314841
  S         4.1633159917        9.6753678545       14.6468130878
  C         3.5397430108        7.1878600888       13.7976947999
  H         4.3611512716       10.4580736404       29.6927210343
  H         3.8884498246       10.1467965188       31.2410580823
  C         5.2518026445        8.6004477509       30.5409779879
  H        -5.2158499334       11.1832045983       26.1817486590
  H        -5.9663112589       10.9427851076       27.8082555164
  C        -6.7084114591        9.6351179714       26.2472957616
  S        -1.9718283139       17.7615522608       31.6167051187
  N        -2.2818753237       17.3165048633       33.1993741336
  C        -2.4621051170       15.2709936877       34.4514343277
  H        -2.2894055767       13.1443740629       35.1934379406
  C         4.4302146997        9.1113904689       13.0214383527
  N         4.0301645941        7.8333536723       12.7604194383
  O         3.1630386982        6.0266264509       13.8292425030
  H         6.0910758548        9.2103069102       30.5708310176
  H         5.2926038972        8.0290886978       29.6217559147
  C         5.0572709088        7.6978845843       31.7683357785
  H        -6.2862412662        8.8702624056       25.5323653243
  H        -7.2476467352        9.0717258666       26.9966483740
  C        -7.7582506028       10.5406505504       25.5634770495
  C        -2.7512068275       16.1015045320       35.5709472098
  S         5.0944215501       10.0695070466       11.6914407529
  C         4.1310603801        7.1075762942       11.4347359252
  H         5.3799516613        8.2232815754       32.6376186441
  H         4.0046101010        7.4146004192       31.9488615791
  C         5.8237745923        6.3553170516       31.8445927596
  H        -7.2656255056       11.1016682763       24.7360843048
  H        -7.9964151886       11.4077193223       26.2635630612
  C        -9.0037124610        9.8718956810       25.1093384793
  H        -2.4419582874       17.1202096682       35.4983881740
  C        -3.0710813566       15.8708789942       36.8817489385
  H         4.4343361306        7.7536696666       10.5566395212
  H         5.0138787254        6.4319035122       11.6289450448
  C         2.9302727777        6.2890961980       10.9474373479
  H         5.1252933504        5.5427905701       31.6757802341
  H         6.0984037949        6.1024373810       32.8535787601
  C         6.8443274784        6.3014081099       30.8225102899
  H        -9.2330470752       10.2231724434       24.0705362815
  H        -8.7952247355        8.8575226990       24.9390406963
  C       -10.1201949437        9.9381155864       26.1168082597
  S        -3.4953008427       14.3660834504       37.5508366971
  C        -3.2018463971       17.0518673062       37.7709765685
  H         2.5854916635        6.6046209564        9.9501549230
  H         3.2601639679        5.2512626914       10.8887496773
  H         2.0827543069        6.3695054505       11.6026975957
  H         7.4109238251        7.2435329127       30.9202081935
  H         6.4069827238        6.1330606754       29.8317656460
  H         7.6312487763        5.4834625803       31.0481450912
  H       -10.4983761817       10.9835274419       26.1497037855
  H        -9.7187650414        9.5436190684       27.0394891208
  H       -10.9965049999        9.2781340554       25.7797961636
  C        -3.7469913823       15.2632382910       39.0434944204
  N        -3.6586148173       16.6651222837       38.9727168762
  O        -3.1823745516       18.2529046940       37.4216121158
  S        -4.2922923212       14.5983072162       40.6011508960
  C        -3.8881036979       17.6164347056       40.0842441908
  H        -4.3201039807       18.5252813619       39.7253504032
  H        -4.5705681390       17.2579352677       40.8798925930
  C        -2.5397771611       18.0190140176       40.6620313494
  H        -2.2843736726       18.9364132974       40.1413230658
  H        -2.6650522155       18.1805855321       41.7201708099
  H        -1.7433405830       17.2613929587       40.3710312785
  H         6.9537909865       11.6407577260        3.6188434564
  C         7.3678156124       10.6026251653        3.4790370704
  H         6.6380831793        9.8736036661        3.7171040020
  C         8.6675991541       10.3764378409        4.3366252911
  C         7.6973760465       10.4429640327        1.9845648629
  C         8.3694924493       10.6254483958        5.8504771840
  H         9.1230207162        9.3872694291        4.1644172816
  H         9.4174871242       11.0545657074        4.1254847944
  H         8.7326420536       10.8746006993        1.7466241206
  H         6.8939770424       10.9038320236        1.3800550170
  H         7.7226952263        9.3559545756        1.7131104174
  C         7.5885087262        9.4746279043        6.4648049190
  H         9.2625348335       10.5863490849        6.3925448618
  H         7.9713525215       11.6150806770        6.1024534239
  C         6.8561554105        9.7908583133        7.7587048711
  H         8.1508775042        8.6074221664        6.5112341458
  H         6.8602146296        9.2416102758        5.6531919934
  C         5.4886608974       10.4796151406        7.6506080113
  H         7.5835620284       10.3054245604        8.4359144443
  H         6.6439081540        8.8822615966        8.3066230412
  C         4.2384004710        9.7039802128        7.2872147051
  H         5.2721459189       10.9298731253        8.6590396433
  H         5.6692690585       11.3374258395        6.9844816563
  C         2.9295864717       10.5048599428        7.1463828230
  H         4.0025340639        8.9696784398        8.0824129285
  H         4.5549048528        9.2578604134        6.3947780623
  C         3.1560024276       11.8694945000        6.4767695115
  C         2.4595012681       11.2363610140        8.3973220205
  C         1.8123114123        9.7236071848        6.3829095460
  C         3.0290214887       12.9676759534        7.3110399938
  C         3.5953459261       12.2255859749        5.1828383174
  C         2.4814929400       12.6270791596        8.4882412916
  C         2.0538728877       10.6573342421        9.5367609095
  H         2.2660703253        9.2720625947        5.5117653660
  H         1.6375206732        8.8665866960        6.9550382216
  C         0.6017620283       10.5895651660        6.0334921778
  S         3.4791504480       14.4435688986        6.6474390411
  C         3.7747947979       13.5747758159        5.1363668811
  H         3.7812529794       11.4534013512        4.3503995161
  C         2.2056197903       13.2227558248        9.6913029432
  H         1.9617292499        9.6315939394        9.4742363979
  C         1.7446297720       11.2804233192       10.7166389572
  H         0.8738467190       11.5365041214        5.5348371587
  H         0.0492015919       10.8554991984        6.9844039657
  C        -0.4955798462        9.8586871702        5.2180125309
  C         4.3014447662       14.3109953875        3.9085481000
  C         1.7734843751       12.6201318754       10.8428748947
  H         2.4198815325       14.2699854582        9.5579279381
  C         1.3179894979       10.8648099583       11.9469308480
  H        -1.2747338662       10.5901466677        4.9780108392
  H        -0.8576632192        8.9863044625        5.7933135590
  C         0.0641029629        9.4896490705        3.7979722920
  C         4.2088377744       15.7092344046        3.6741244604
  C         4.7857153187       13.4059919065        2.7865214940
  C         1.3767742567       13.3426919661       12.0897665341
  C         1.1206052048       11.9734547129       12.7772384143
  S         1.0241025110        9.3311600514       12.6738909470
  H         0.1705439482        8.4193034907        3.7290570114
  H         1.0734351146        9.9077771262        3.6752222494
  C        -0.8254993138       10.0377281753        2.6404796438
  N         3.9216697844       16.6603433230        4.6447908686
  C         4.5214503980       16.2633510498        2.4089396681
  C         5.0684681902       14.0060312960        1.5618735455
  H         4.8905725137       12.3947331780        2.9241965883
  C         0.1014558629       14.1549066425       11.9032076409
  C         2.5821435346       14.1797673025       12.6779455976
  C         0.6793986735       11.5713157562       14.0617791391
  C         0.6399309004       10.2175667253       14.1396299088
  H        -1.8522640528        9.6389915298        2.7423384017
  H        -0.9897989215       11.0931807270        2.6258723922
  C        -0.3504157519        9.6174090773        1.2483756414
  S         4.0305245600       18.1232924819        3.9901414745
  N         4.5999945423       17.6447304554        2.4552420258
  C         4.9126967546       15.4535234136        1.2925451389
  H         5.5031548360       13.4212216482        0.7536410838
  H         0.3178603966       14.8984377549       11.1616350052
  H        -0.1950921337       14.7787517649       12.7177092733
  C        -1.1158258138       13.3697976439       11.3533735898
  H         2.9451069334       14.8440593192       11.8957280832
  H         2.2600721813       14.7548264563       13.5293964077
  C         3.7275354283       13.3327664448       13.1157127390
  H         0.4152972668       12.3755910860       14.7377455288
  C         0.2813274365        9.4812688585       15.3843483223
  H         0.1678939327        8.6939277882        1.4018527752
  H         0.3995343065       10.3469644107        0.8838074415
  C        -1.4909130073        9.2647518235        0.2879323921
  C         5.2525552440       16.0952595537        0.0672650227
  H        -0.9703831612       13.1910634302       10.2830283805
  H        -1.4650952026       12.5053683345       11.8841251706
  C        -2.3027929716       14.3256849430       11.2782719162
  H         4.0922284433       12.6726795518       12.3477542749
  H         3.4436579540       12.6409660061       13.9045625024
  C         5.0122516039       14.0739483045       13.5195062417
  C         0.1341436085        8.1006062113       15.5297033737
  C        -0.0353518557       10.3503093093       16.5616366867
  H        -1.2584725096        8.4446325787       -0.3725464179
  H        -2.3233722121        8.7975351343        0.8690465575
  C        -2.0150751691       10.5187142424       -0.4983842015
  H         4.9782567255       17.1540021587        0.1638308008
  C         5.5605801877       15.5920160509       -1.1758721825
  H        -2.1644087797       15.1334563504       10.5653818725
  H        -2.4356117627       14.8377780488       12.2295257627
  C        -3.5209225762       13.4685410761       10.8516594678
  H         5.1989497689       14.9681720505       12.8792930848
  H         4.8048763412       14.4846754757       14.4783766631
  C         6.2053504505       13.1395248995       13.5997165470
  N         0.3454915925        7.1213498601       14.5122333283
  C        -0.2572314471        7.5133862045       16.7599691317
  C        -0.3572233401        9.7617845787       17.7617417492
  H         0.0791936426       11.4120584371       16.5980415402
  H        -2.6847037329       11.0594213723        0.1719358990
  H        -2.5092375148       10.3860160095       -1.4514512081
  H        -1.2388033019       11.2579357667       -0.5762371317
  S         5.8896385559       14.0154802646       -1.5871317593
  C         5.5940833694       16.6043394352       -2.2452779883
  H        -3.1578219934       12.6234761931       10.3618935612
  H        -3.8744266026       13.0707460035       11.7773187680
  C        -4.6018440297       14.0301296932        9.9882550844
  H         6.6146339232       12.9250329150       12.6471085547
  H         5.8098147117       12.2031580084       13.9587109132
  C         7.2833261828       13.6774747424       14.5234950587
  S         0.1551924470        5.6624910259       15.2283128783
  N        -0.2827886968        6.1263669266       16.6991208287
  C        -0.4731704511        8.2616633184       17.9337087490
  H        -0.4811368535       10.4434469767       18.6324126178
  C         6.0635527016       14.6719192939       -3.1961705708
  N         5.9948427135       15.9995547178       -3.3838655147
  O         5.2859325624       17.7933649427       -2.0139044437
  H        -5.1031201387       14.7827774728       10.5644042324
  H        -4.1011164141       14.6305521473        9.2396757158
  C        -5.5497595782       13.0163573871        9.3562454325
  H         6.9005701583       13.7629345112       15.5684695331
  H         8.1443304652       13.0260318988       14.4137501664
  C         7.8376882321       15.0442295372       13.8889275437
  C        -0.7438559585        7.5592170632       19.1282014273
  S         6.5535302014       13.5884737449       -4.4875867349
  C         6.0331013414       16.7075907033       -4.7009856734
  H        -5.1151867320       12.4943880710        8.5892263355
  H        -5.8344635331       12.2167412748       10.0394609409
  C        -6.7769301630       13.7701776131        8.9444920309
  H         7.4587853077       15.3939152628       12.9862524537
  H         8.9265957070       14.8184608081       13.7646287190
  C         7.7473172261       16.3757477814       14.7960418448
  H        -0.4440074883        6.5764053029       19.1724642540
  C        -1.3987847978        7.8674895159       20.3151546840
  H         6.8168312733       16.2790663156       -5.3879515705
  H         6.3678627368       17.6691558131       -4.5232740893
  C         4.6426165016       16.7171833135       -5.3096616952
  H        -6.9752798666       13.4479182644        7.9233347664
  H        -6.5020654578       14.7960523513        8.9086025878
  C        -7.9514575816       13.6975232932        9.9329077015
  H         6.8078095708       16.4548680522       15.2980554810
  H         8.5356623793       16.1846049328       15.5180576367
  C         7.9453860557       17.6029080166       13.9243292687
  S        -2.0249074008        9.3692113466       20.8180968896
  C        -1.5691207790        6.7654392462       21.3588218963
  H         4.4827175263       15.8222964992       -5.8726812997
  H         4.5422583696       17.5266833594       -6.0577438976
  H         3.7004772582       16.8073939140       -4.7114608601
  H        -8.9193300980       13.8283868728        9.3503544274
  H        -7.9821822787       12.8023265422       10.5502985164
  H        -7.8520513349       14.5209128235       10.6282194732
  H         7.8216834271       18.5130161337       14.5614208403
  H         8.9139845684       17.6515686187       13.4647279718
  H         7.0428948999       17.6235416596       13.2280622418
  C        -2.4668062315        8.5651243667       22.3508197452
  N        -2.1947163735        7.2612553985       22.4466999253
  O        -1.0534724370        5.6043268271       21.2517379278
  S        -3.3248547639        9.3740086716       23.6302801153
  C        -2.2856097668        6.4070685664       23.6592596639
  H        -2.0824031977        5.3292891444       23.4170530402
  H        -3.2501306752        6.5788904210       24.2189993364
  C        -1.1892601381        6.8131105104       24.6993391658
  H        -1.4494107267        6.3547516869       25.6953148738
  H        -1.0509241773        7.8995767306       24.9155092741
  H        -0.2485481596        6.3280451131       24.5324380847
