352
i =
  H        -3.9926119877       14.0377942377       16.8374842622
  C        -3.6296633762       13.0742316544       16.4831192313
  H        -4.5256753266       12.3915651950       16.5030812633
  C        -2.5416291574       12.6580059910       17.4197719384
  C        -3.2299232664       13.2286616455       15.0569272450
  C        -2.9694687047       12.9601044484       18.8744740057
  H        -2.3390429236       11.6319739229       17.2418951684
  H        -1.6979992002       13.2736387400       17.2054884810
  H        -3.9893888674       13.6064404895       14.3441011985
  H        -2.4319808216       13.9112006886       14.9312358371
  H        -2.9755971754       12.3017908020       14.6133783616
  C        -2.1696035119       12.3679233200       20.0228277807
  H        -4.0755833632       12.7318658929       19.1151194413
  H        -2.8882036232       14.0535413646       18.9830237943
  C        -2.7900037924       12.7700023991       21.3051976859
  H        -1.9139148799       11.2927307612       20.0097126066
  H        -1.2112200985       12.7133389905       19.9150667086
  C        -1.9096540997       12.4287002703       22.4554328141
  H        -3.6763708051       12.2097731686       21.4136252755
  H        -2.9769418471       13.8977336693       21.3699301072
  C        -0.6181081122       13.2858228018       22.5669510545
  H        -2.6306762864       12.5432399938       23.2163156799
  H        -1.5898068643       11.3979686143       22.2849447451
  C         0.6227596149       12.6012668309       23.1743119891
  H        -0.4061396539       13.5413777289       21.5264314460
  H        -0.8135983093       14.0895899395       23.2561612747
  C         1.0032864004       11.2594810669       22.5629076054
  C         0.2173540581       11.9208075777       24.4756601625
  C         1.8034577873       13.5826488838       23.2092417157
  C         0.7258301569       10.1272131262       23.3664930326
  C         1.5903706124       10.7690571109       21.4157956411
  C         0.2838564650       10.5813174752       24.6127168802
  C        -0.2632785294       12.5148457788       25.6793824628
  H         2.0644738160       13.8476104387       22.1767176872
  H         1.4575867476       14.4706339814       23.7132332497
  C         3.0244542094       12.9822313956       23.8750839726
  S         1.0314952498        8.5515286851       22.7901342904
  C         1.6231065128        9.3695868186       21.3923254679
  H         1.7638387247       11.4021083715       20.6264886397
  C        -0.0777716679        9.9368851880       25.7645801191
  H        -0.2126522894       13.6354361886       25.6644904819
  C        -0.6615071857       11.8707133208       26.8169811344
  H         3.4523486935       12.2832323606       23.0836782898
  H         2.8194299574       12.3147334454       24.7176685023
  C         4.0991486123       13.9118778889       24.3147357447
  C         2.0186115002        8.7194827794       20.1141886555
  C        -0.6482900632       10.5512897654       26.9276985064
  H        -0.1663713793        8.8442570144       25.6343543300
  C        -1.0307511896       12.2194971769       28.1257304827
  H         4.8173641890       13.4988269425       24.9986392845
  H         3.6799102117       14.6117673813       25.0131814707
  C         4.7244476168       14.6866384810       23.1965646313
  C         1.9656900348        7.3533944365       19.8295146486
  C         2.5783297081        9.5605806821       18.9908393955
  C        -1.0633756627        9.8601002535       28.1691116210
  C        -1.3593746926       11.1404658188       28.8828716606
  S        -1.2824222791       13.6995870737       28.9707776207
  H         5.2029049207       15.6484566001       23.4929032622
  H         3.8617216641       15.1229372535       22.5719570579
  C         5.6889677971       13.7809905583       22.4836725676
  N         1.5192464954        6.4324384356       20.8004269799
  C         2.2254318642        6.7351850996       18.5972871340
  C         2.9974403540        8.9445604189       17.7951270244
  H         2.8424876116       10.6112785248       19.2116859321
  C         0.0811071195        9.1534577681       28.8208442921
  C        -2.3007231744        9.0662206441       27.9585016272
  C        -1.7961684073       11.4842560151       30.1823827412
  C        -1.7318312735       12.8567175066       30.3337245913
  H         6.6521907788       14.3786003138       22.6770207726
  H         5.6018799126       12.7989878273       22.9322199455
  C         5.3402183303       13.7890090145       20.9975149367
  S         1.8473023756        4.9691267011       20.2289098896
  N         2.0348482855        5.3672929061       18.6699136686
  C         2.7544299112        7.5234674309       17.5083864068
  H         3.4819454730        9.5409187784       17.0575358383
  H         0.4225111273        8.4140025031       28.0425079872
  H        -0.3925258461        8.5035439182       29.5794313275
  C         1.2118645548       10.0887620017       29.4049192453
  H        -2.2532492681        8.2458473218       27.2843229825
  H        -2.6379790461        8.7636066660       28.9549477074
  C        -3.4686873411        9.9258726041       27.5349598710
  H        -2.0792963236       10.7342695439       30.9489953295
  C        -2.0390754658       13.6657177046       31.5650452426
  H         5.0614258605       14.7784503934       20.6502739295
  H         4.4377112296       13.2185568713       20.8138025243
  C         6.4937727010       13.3719063076       20.0784125286
  C         3.0364104960        6.8939856366       16.2774207612
  H         1.4250845915       10.7805225644       28.5989725508
  H         0.8897103375       10.6166812197       30.3057929911
  C         2.4124953762        9.2120469284       29.7329748719
  H        -3.3355896135       10.6025663535       26.7395740435
  H        -3.9215438848       10.5959100887       28.3240626248
  C        -4.6552626072        9.1354549170       27.0844308539
  C        -2.0689020567       15.1078396766       31.7122964260
  C        -2.2413695783       12.9469264756       32.8305915367
  H         6.1019063681       13.0193015489       19.1409589913
  H         6.9800244581       14.3085169127       19.7010839206
  C         7.4216887556       12.3138119334       20.7007059337
  H         2.8610575182        5.8362015440       16.2479921317
  C         3.3063504636        7.4352336901       15.0492656536
  H         2.7674666454        8.8752347638       28.7767107546
  H         2.1197321800        8.4613370777       30.4210392260
  C         3.4167164589       10.1179552313       30.3752608827
  H        -4.3522660632        8.3808001732       26.4047466103
  H        -4.9890879158        8.6387663742       28.0257411118
  C        -5.7530376960        9.9776936571       26.4318200617
  N        -1.6562897338       16.0413351646       30.7425476475
  C        -2.4273648877       15.7585352961       32.8761551001
  C        -2.4385548226       13.5659478728       34.0342054629
  H        -2.3544336639       11.8689547466       32.7998465713
  H         6.9201895945       11.3434090680       20.8938739311
  H         8.3346878744       12.2166364897       20.1711354735
  H         7.8493008327       12.7315208763       21.5980138957
  S         3.7580249553        9.0984617939       14.5967742812
  C         3.1823927188        6.4927835812       13.9512695555
  H         3.5931415962       11.0032725567       29.7813836492
  H         3.1630490145       10.4793770137       31.3356142180
  C         4.8025216446        9.4184346622       30.5387259376
  H        -5.3693710438       10.1821280148       25.4536090942
  H        -5.9607413058       10.9033478356       26.9774862776
  C        -7.0540656957        9.3530648349       26.2411046238
  S        -1.9819925251       17.5097931785       31.2158255359
  N        -2.5356285638       17.1305329532       32.7088357269
  C        -2.7319345922       15.0373046490       34.0465743535
  H        -2.4740064691       12.9814043704       34.9726595883
  C         3.8291472375        8.4281335585       12.9821281806
  N         3.6322757239        7.0526545792       12.8502085148
  O         2.9337494043        5.3055748420       14.0917420014
  H         5.5130386002       10.1096427460       30.7158229481
  H         5.0054306322        9.0382367671       29.4875217921
  C         4.9009434326        8.2339963999       31.5178041682
  H        -6.8611262804        8.4557231730       25.6533293464
  H        -7.5036016415        8.9433092602       27.1605996700
  C        -7.9619106992       10.2780060279       25.4064680541
  C        -2.9611183403       15.7705136942       35.2676989136
  S         4.5267854387        9.3565046633       11.6044001686
  C         3.7409415134        6.3338930549       11.5916397491
  H         5.7420768494        8.3038311520       32.1936389171
  H         4.0204435576        8.2510767672       32.1782012571
  C         5.0457755894        6.8519866089       30.7958200760
  H        -7.4734613748       10.6986665212       24.4522753998
  H        -8.2132623329       11.1467461161       25.9502028001
  C        -9.2075729990        9.5169385701       24.8135094226
  H        -2.4877826398       16.7408358885       35.3582210593
  C        -3.4876185704       15.4192470642       36.5047824426
  H         4.4534190125        6.7725516137       10.8975310087
  H         4.2903992057        5.4246315879       11.7542788212
  C         2.3725835764        6.1547972207       10.8561545401
  H         4.3410619961        6.6581919130       30.0441067249
  H         5.0376178956        6.0239246307       31.5245907491
  C         6.3521140557        6.7800915227       30.0017569616
  H        -9.4915121173       10.0741403392       23.8858853791
  H        -8.8579915833        8.6241861798       24.3112751129
  C       -10.2787145772        9.2936046689       25.8888830125
  S        -4.0204064934       13.8493537872       36.9761681344
  C        -3.5895936461       16.5762327244       37.5452556312
  H         1.5640434610        5.8726282399       11.5153946187
  H         2.1791608496        7.0602115270       10.1473740161
  H         2.4669405001        5.2956735863       10.2053919523
  H         6.1718521397        7.1647035405       28.9888917768
  H         6.7272233565        5.7863599949       30.0228191078
  H         7.1046785856        7.2861932618       30.5340303355
  H       -10.0243611881        8.4279580494       26.5384085144
  H       -11.2199042285        8.9900495027       25.3457306909
  H       -10.3870709596       10.1778697608       26.5319936762
  C        -4.3309740729       14.6288222879       38.4856994665
  N        -4.1819071311       15.9517543691       38.5594548881
  O        -3.1954703521       17.7488819455       37.4842589302
  S        -4.9550729213       13.8575089834       39.9670893162
  C        -4.5467659046       16.6937558757       39.7434836251
  H        -4.9117332080       17.7148579919       39.5623950571
  H        -5.4599029168       16.2612820252       40.1622695654
  C        -3.4296398445       16.7055804385       40.8218327495
  H        -3.6465138152       16.1433869872       41.7802178047
  H        -2.5692023248       16.2351817627       40.4011775232
  H        -3.2118883046       17.7180513798       41.1500698684
  H         6.7972951641       10.8070028909        3.8565665620
  C         7.6634011980       10.2185132257        3.8319399812
  H         7.3227342663        9.2016934002        3.8371426230
  C         8.5368865041       10.4196924623        5.1068602592
  C         8.3211882146       10.4189368935        2.5188118641
  C         7.7147756584       10.4757887359        6.4766253063
  H         9.2859726281        9.6975448815        5.1277090303
  H         9.1513209600       11.2987436160        5.0199922680
  H         9.2785564679       10.8589802058        2.6094205437
  H         7.6261556402       11.0081673556        1.9046877677
  H         8.3864594679        9.4104192167        2.1081242462
  C         7.1172952963        9.1317882812        6.8385223197
  H         8.2711547794       10.9488975044        7.3188037808
  H         6.9944986253       11.2224792895        6.1803496432
  C         6.3273308375        9.2186492970        8.1544524287
  H         7.9398587600        8.4646473969        7.0180567397
  H         6.5455363301        8.5882486364        6.0892785409
  C         5.1361707491       10.1681636084        8.0681158908
  H         7.0309469099        9.5334997889        8.9145683924
  H         5.9629737158        8.2757107435        8.4066074841
  C         4.0146397940        9.4035487985        7.3191465048
  H         4.8969787119       10.5257837785        9.1158156791
  H         5.3421396712       11.1137039397        7.4638333790
  C         2.7389205999       10.2058472633        7.1036161369
  H         3.8664444264        8.4008061937        7.7380109454
  H         4.3355524912        9.1493620290        6.2855511362
  C         3.0562774284       11.5674731541        6.4420252450
  C         2.2386006747       10.8734719641        8.2686703631
  C         1.6432077090        9.4075113570        6.3576577309
  C         2.8054382388       12.6621621092        7.2473140315
  C         3.7796599813       12.0344832295        5.2656612795
  C         2.2305332654       12.1871202922        8.4299745527
  C         1.7313478874       10.1592097235        9.3258485181
  H         2.1354979893        8.9539380090        5.5377022891
  H         1.3338040275        8.5605555269        6.9769730520
  C         0.3548146213       10.2287794748        6.0546275231
  S         3.2864003723       14.1664312464        6.6358675470
  C         3.8302373918       13.4158311914        5.2104313589
  H         4.2026904945       11.3065463946        4.5714141528
  C         1.7417782776       12.7538101028        9.5153574762
  H         1.7721050103        9.0890231749        9.2538675974
  C         1.4002676998       10.6897527299       10.5169127448
  H         0.6433272373       11.2036516092        5.6796321330
  H        -0.2130523280       10.3458150627        6.9834266651
  C        -0.5910651887        9.6357851507        4.9956549786
  C         4.3013080169       14.1483378846        4.0280494582
  C         1.3799398415       12.0564420963       10.6646510259
  H         1.8543443375       13.7816127883        9.6059513595
  C         0.9862045586       10.2231310232       11.7435046616
  H        -1.2911424690        8.8843952152        5.4728501660
  H         0.0959300488        9.0681985154        4.3846342537
  C        -1.3005488591       10.6763785705        4.1528533624
  C         4.1548347291       15.5726789515        3.8673370759
  C         4.8199501344       13.4136257607        2.8727381225
  C         1.0233668709       12.7259093617       11.9493625254
  C         0.6752867432       11.3065830308       12.6241465997
  S         0.7142861474        8.7015334992       12.5501584908
  H        -0.5607115863       11.3277895730        3.6166707821
  H        -1.9505605902       11.2336725407        4.7770219764
  C        -2.1323438035       10.1147423275        3.0366450863
  N         3.5867878305       16.4351930912        4.7817404348
  C         4.4286330855       16.2043274556        2.6427360634
  C         5.0664184213       14.0329867916        1.6867862640
  H         5.0947988440       12.3717471806        2.9465131677
  C        -0.3018182958       13.5267754666       11.9216412392
  C         2.1267077653       13.4739410134       12.7913282525
  C         0.2265357817       10.8784954460       13.9013031510
  C         0.1997717934        9.4892435725       14.0605941169
  H        -2.8087802465        9.4098622682        3.4751955883
  H        -2.6924751466       10.9312155550        2.6046863363
  C        -1.2970465869        9.4577901171        1.9131484020
  S         3.7308870402       17.9821654397        4.2121322854
  N         4.3213763467       17.6618905537        2.6887689978
  C         4.9210684094       15.4819710568        1.4945098148
  H         5.4361659517       13.4338358619        0.8742523355
  H         0.0377043505       14.5491350823       11.6299895015
  H        -0.6681467212       13.6211343657       12.9729240097
  C        -1.3579181961       12.9955839383       11.0733172629
  H         2.5148847892       14.3392848154       12.2736670599
  H         1.6845239917       13.9013492116       13.7490866138
  C         3.4020307596       12.6301497373       13.1625383328
  H        -0.0834024945       11.5682095451       14.6500732477
  C        -0.1883785759        8.7577121243       15.2985350007
  H        -1.8553601754        8.5853261764        1.5591289640
  H        -0.2217508141        9.2324444375        2.1401021202
  C        -1.0988057656       10.4085230898        0.6816566196
  C         5.1599659298       16.1836857681        0.2965075057
  H        -1.1087177773       13.3333322574       10.0742985625
  H        -1.2613680400       11.8788237373       10.9140645196
  C        -2.7193080949       13.4918429273       11.3368690462
  H         3.8616483644       12.2290249248       12.2516186540
  H         3.1329827269       11.8318982634       13.8151020614
  C         4.2662206340       13.6934825888       13.8695907199
  C        -0.2856540285        7.3700067968       15.3720924548
  C        -0.4345801890        9.5014351100       16.5737113253
  H        -2.0298090801       10.6707380923        0.3628727342
  H        -0.4919953919       11.3240280381        0.9351366376
  C        -0.4726897253        9.6745390327       -0.5447436838
  H         4.8986872783       17.2674794331        0.4241066837
  C         5.3952122199       15.7812700257       -0.9726364339
  H        -2.5673144433       14.4949395291       11.7503216154
  H        -3.1282573416       12.9046986541       12.1141564366
  C        -3.6607317733       13.4810665598       10.0710342913
  H         4.5319652466       14.4908726666       13.1101919492
  H         3.6554032598       14.1924719254       14.6489656801
  C         5.6636208488       13.3440482989       14.3578410104
  N        -0.0528677458        6.5049764961       14.2984599819
  C        -0.5658050023        6.6957725527       16.5506879248
  C        -0.6960604739        8.8449130342       17.7805876997
  H        -0.4993152672       10.5697153478       16.5678668019
  H        -0.0053164936       10.5542004500       -1.1163764465
  H        -1.0383425723        9.1309166043       -1.2724069680
  H         0.4033685589        9.1040423663       -0.3519480391
  S         5.6434552267       14.1809907315       -1.5448385866
  C         5.5497470101       16.7833680448       -2.0792066871
  H        -3.2341439292       14.4060162850        9.6711152123
  H        -3.4409231404       12.6020082179        9.3829778370
  C        -5.1374929635       13.4854526996       10.4602747394
  H         5.9437503689       12.4940292828       13.6953002705
  H         5.7077866006       13.0200881091       15.3353569141
  C         6.6301898630       14.5659489024       14.3307557237
  S        -0.0247711074        5.0061430698       14.8927543251
  N        -0.4824582354        5.3072826211       16.4081871304
  C        -0.7839467717        7.3435355927       17.8384731771
  H        -0.7736449660        9.4013956180       18.7054894912
  C         6.0726853992       14.8148398494       -3.1297974603
  N         5.9413254539       16.1381691606       -3.2198873390
  O         5.3835382009       18.0034260045       -1.9585823781
  H        -5.3472554607       12.8483446182       11.2753305468
  H        -5.3729655250       14.5034448278       10.7578118480
  C        -6.1865178960       13.0964038001        9.3637894721
  H         7.5575939924       14.2869989145       14.7887503709
  H         6.8832796021       14.9109949186       13.2858219669
  C         6.1693608046       15.8303623554       14.9879096501
  C        -1.0746461809        6.6655001150       19.0392771436
  S         6.5752334257       13.9532086746       -4.5617814106
  C         6.0178539754       16.9597594380       -4.4864527575
  H        -5.8217486811       13.5618275052        8.4804746252
  H        -6.3498130081       12.0173285593        9.3688431904
  C        -7.5325272406       13.7398069857        9.5968468377
  H         5.3787314693       15.5309905688       15.6680466919
  H         5.6457450393       16.3536925199       14.2349044469
  C         7.3415816231       16.5958280176       15.7359100956
  H        -0.8001659741        5.6217245989       18.9374400118
  C        -1.6291169353        7.0160182989       20.2738778952
  H         6.8020209280       16.6322939171       -5.1608565389
  H         6.3816249930       17.9320754981       -4.1522523178
  C         4.6409778414       16.9710415077       -5.2821383082
  H        -8.1433214406       13.3893858385        8.7557951810
  H        -7.4941164910       14.7947790146        9.5657913714
  C        -8.2644385649       13.2110385846       10.8777267782
  H         6.7989189649       17.3136010577       16.3986881781
  H         7.8373113693       15.8720737965       16.4084295531
  C         8.1359930625       17.2787754486       14.6403931245
  S        -2.1234127109        8.5830907865       20.8196307059
  C        -1.7739000689        5.9334967733       21.2728580347
  H         3.7444610636       16.7279326457       -4.6280856161
  H         4.7922834035       16.3592141772       -6.1195446032
  H         4.6472698902       17.9584450038       -5.5811422344
  H        -9.1500377784       13.7864133201       11.0193254355
  H        -8.6088698001       12.2213574633       10.6376192329
  H        -7.7341598094       13.1639117531       11.7886904148
  H         8.7532416824       16.6378167644       13.9929667889
  H         7.5478083470       18.0255375974       14.0742906254
  H         8.8649323672       17.9921642535       15.0979686425
  C        -2.4585625484        7.7970954797       22.3957016319
  N        -2.3877901970        6.4265880768       22.3672083178
  O        -1.6841161817        4.7369955780       20.9877123387
  S        -3.1942463036        8.5834672579       23.7015102011
  C        -2.6641299948        5.5780272346       23.5699826036
  H        -2.9217523872        4.5882298705       23.1468938236
  H        -3.4398105591        5.8631372066       24.2491735241
  C        -1.4243904129        5.5248218583       24.5285919165
  H        -0.5990335771        5.6000927090       23.7745495132
  H        -1.3529854375        4.5750171618       25.0983622886
  H        -1.4587107896        6.4429697427       25.1289583408
