352
i =
  H        -4.1243053026       12.1733867854       16.8784219506
  C        -3.1149078519       12.5869275063       16.7979048896
  H        -2.4273267037       11.7737120960       17.0223427837
  C        -2.8473823132       13.6006443580       17.9105001218
  C        -2.6549455604       13.2083939111       15.4561466592
  C        -3.1561776533       12.9673194341       19.2614593324
  H        -1.8397408342       13.9914684376       17.8887022808
  H        -3.5670587642       14.4136203748       17.8183370513
  H        -2.0834569932       12.5457503635       14.8584164085
  H        -3.4282808713       13.6195530454       14.8581318512
  H        -2.0507271586       14.1360714924       15.5474870565
  C        -1.9719331008       12.7417758582       20.1614478115
  H        -3.7166254573       12.0488811793       19.2107894848
  H        -3.7819632201       13.7202870651       19.7771674195
  C        -2.3581913404       12.7023640414       21.6787730050
  H        -1.4538008015       11.7973382970       19.8594768138
  H        -1.3280083835       13.6317254619       20.0805688645
  C        -1.2382584735       12.1708156591       22.5650973417
  H        -3.1984464084       11.9886829428       21.7748882332
  H        -2.6636249773       13.7686815666       21.8590031250
  C        -0.1506295705       13.1857871945       22.8251366856
  H        -1.6979309213       11.9191410298       23.5424276861
  H        -0.7817382502       11.3334535100       22.0625315649
  C         1.0523828565       12.6799940001       23.6711613904
  H         0.2182507698       13.5341107407       21.8501738457
  H        -0.5385849901       14.0729162055       23.3281955181
  C         1.4991402352       11.3853229658       22.9715698375
  C         0.5794875880       11.9132526871       24.9410694130
  C         2.2881256184       13.6017732441       23.6820807044
  C         1.3445858878       10.2763202095       23.8559040392
  C         2.0835653676       10.9970961445       21.8245317359
  C         0.7429240744       10.6097181138       25.0424219004
  C         0.1010547768       12.5501262696       26.0734755517
  H         2.3958133155       13.9336606832       22.6944467496
  H         2.0811348672       14.5548876976       24.1880899847
  C         3.6008132457       13.0233871796       24.2852554255
  S         1.8069753588        8.7699892665       23.1089630171
  C         2.1860452541        9.6633052508       21.6159579753
  H         2.2296946416       11.7478857768       21.0894533982
  C         0.4167848904        9.9542123533       26.2492628336
  H         0.0959626611       13.6041442589       25.9000469635
  C        -0.0946001455       11.9305800972       27.2822681169
  H         4.0595122835       12.1441139459       23.7622673251
  H         3.2948621877       12.5549114598       25.2066017097
  C         4.7113642239       14.1095768670       24.5910547142
  C         2.4858248548        8.9507759587       20.3564519863
  C        -0.0131457609       10.5958139562       27.4167260763
  H         0.5581114799        8.9179940476       26.3187944677
  C        -0.5207057996       12.3045401376       28.4904820356
  H         5.5505305990       13.5525632179       25.1048365492
  H         4.4080760730       14.9363967058       25.2894273609
  C         5.1918221228       14.6879231021       23.2389932065
  C         2.3665654392        7.5830374362       20.0904038472
  C         2.7316517400        9.7503810905       19.1632426846
  C        -0.3897715397        9.9321778046       28.6938019628
  C        -0.7160985661       11.2300877559       29.3336703827
  S        -0.9001086081       13.7866228921       29.2931132880
  H         5.8148909395       15.5735787706       23.4274126454
  H         4.3096989462       14.8910160908       22.6188405991
  C         6.0965703380       13.6883402212       22.4368487011
  N         2.0241617685        6.6051702551       21.0325164386
  C         2.5661202940        7.0331660534       18.8297108944
  C         3.0506618773        9.2195307025       17.9122491891
  H         2.8766754735       10.7409617811       19.2377183420
  C         0.8326804430        9.2157488824       29.3834614186
  C        -1.5824076997        8.9428220121       28.6571797043
  C        -1.1725082379       11.6518833866       30.6092206764
  C        -1.1624035020       13.0499136860       30.7623036974
  H         7.1494450642       14.0418570527       22.5437642657
  H         6.0277391623       12.6143222884       22.8239912992
  C         5.6181451789       13.7064956985       21.0086679039
  S         1.9820840240        5.1872472844       20.3224361129
  N         2.3370212376        5.6141578907       18.7562748692
  C         2.8627257715        7.7742913667       17.6697982063
  H         3.2355595067        9.9263804716       17.0760005672
  H         1.2106238880        8.3146734940       28.8488950738
  H         0.4969608478        8.7981862396       30.3401581370
  C         2.0422969457       10.1003275598       29.7512470544
  H        -1.3282558540        7.9464510267       28.3573493941
  H        -1.9013330669        8.8317163930       29.6819117769
  C        -2.7256426522        9.5810159953       27.8129614140
  H        -1.4437026131       10.9449450471       31.4321651074
  C        -1.3804177389       13.8654786946       32.0300671855
  H         5.7378509437       14.7256406598       20.7198351410
  H         4.6183108713       13.3942530191       20.9509642392
  C         6.5538864108       12.8764837205       20.1393046787
  C         3.2562833028        7.1113047757       16.4786156219
  H         2.4558781450       10.7770845260       28.9643058199
  H         1.7724458577       10.8619540511       30.4953583262
  C         3.2738022074        9.2194993688       30.2306715520
  H        -2.5250919104        9.8164102771       26.7591007347
  H        -2.9311052556       10.5315565203       28.1983987708
  C        -4.0227749096        8.8832085257       27.8033731738
  C        -1.5842038864       15.2287124202       32.0653654779
  C        -1.4102600254       13.1945277792       33.3950217001
  H         7.5443968096       13.2162846814       19.9602778578
  H         6.7973349703       11.9289872145       20.6445024794
  C         5.7514346217       12.7107622098       18.8142764295
  H         3.3560858909        6.0147009646       16.5095355164
  C         3.5934524490        7.5519346829       15.2601171683
  H         3.6211365912        8.7081956407       29.2960222983
  H         2.7857853335        8.7046587599       31.0374861453
  C         4.4547079613       10.0718946450       30.8720046208
  H        -3.9751417180        7.8625910701       27.3030791252
  H        -4.3846871396        8.7608883356       28.8164246210
  C        -5.0233401282        9.8865882778       27.0493586176
  N        -1.5824342066       16.0907167378       30.9504974126
  C        -1.8431901414       15.9762068484       33.2226244253
  C        -1.9410500110       13.9112372682       34.4942308620
  H        -1.3762503723       12.0784112045       33.4876456490
  H         5.0557706959       13.4228241326       18.6606789775
  H         6.4258262987       12.5184666331       18.0291690091
  H         5.3124032134       11.6893848825       19.0363896100
  S         3.9127637322        9.1728613818       14.7305441338
  C         3.7371672250        6.5243676538       14.1667894020
  H         4.6896738068       10.8435036633       30.1081325752
  H         4.0815062645       10.6272067674       31.7272226748
  C         5.7301923116        9.3038450879       31.0941181451
  H        -4.3744726165       10.5612360183       26.4224085001
  H        -5.3106002054       10.4694226437       27.9416829590
  C        -6.2087328640        9.2533675073       26.2534566634
  S        -1.6633781702       17.6613656209       31.4478028265
  N        -2.0385764849       17.3703870829       33.0067583206
  C        -2.1968178990       15.3582333937       34.4710924118
  H        -2.1389840139       13.4294922523       35.4069098259
  C         4.0580560380        8.4877456997       13.1665011768
  N         4.0573877199        7.1484872966       13.0757633898
  O         3.4941822183        5.3011084196       14.2573529458
  H         6.5427140002        9.8350975638       31.5708931802
  H         6.1985074441        9.0640963469       30.0887456502
  C         5.4955717467        8.0253849746       31.8449078513
  H        -5.8680260539        8.5181158791       25.4445846399
  H        -6.8684301907        8.7170541554       26.9707034700
  C        -6.8618158893       10.4014157547       25.4623777745
  C        -2.5265899070       16.2274022360       35.6042526302
  S         4.4491806486        9.3974320241       11.6759356444
  C         4.0768149248        6.4075421132       11.7536051038
  H         6.3373393160        7.9439867055       32.5667023176
  H         4.5965294348        8.0052909863       32.4204322409
  C         5.7808988538        6.8913207262       30.8945888373
  H        -6.0555216326       10.5813538299       24.7098504426
  H        -7.0198512513       11.2793021106       26.0520010376
  C        -8.1797884027       10.0983326290       24.8493813051
  H        -2.1441626693       17.2397924984       35.4081563494
  C        -2.9457423824       16.0527449679       36.8932913456
  H         4.8006289575        6.7877038944       11.0745926882
  H         4.3394997672        5.3524177120       11.8698751415
  C         2.6451761950        6.3846877790       11.0771218616
  H         6.7940285710        6.9307157978       30.5515276125
  H         5.1363455169        6.9527125514       29.9977409349
  C         5.7369446231        5.5610849744       31.7272982223
  H        -8.3734015001       10.9470166524       24.1200362104
  H        -7.9945515311        9.2422950324       24.3004416200
  C        -9.3665742729       10.1120975696       25.7918637879
  S        -3.5386404161       14.5353721732       37.4354935468
  C        -3.1354459112       17.2394381314       37.8345995993
  H         1.9756819278        6.4393008096       11.9105836992
  H         2.4102336571        7.2344210006       10.3858847407
  H         2.3151410438        5.4833074853       10.5922407269
  H         4.7464761016        5.1455644007       31.7370231707
  H         6.1846985887        5.6396701196       32.6965926652
  H         6.3278496050        4.7434744745       31.2274211806
  H        -9.3586327414       10.9441734743       26.4998879085
  H        -9.4843029015        9.3595089461       26.5691621635
  H       -10.3115777059       10.2272992687       25.1986128148
  C        -4.0940374297       15.4661518113       38.8607586946
  N        -3.7285377407       16.7768933593       38.9525010013
  O        -2.8589088049       18.3552137972       37.4870068845
  S        -4.6550015884       14.7232742919       40.3200199830
  C        -3.8550960005       17.6658392468       40.1407466260
  H        -4.0914181509       18.6802935316       39.7877275897
  H        -4.6773937146       17.4342556601       40.8061536131
  C        -2.5451625465       17.5874538662       40.9731569052
  H        -2.3413740388       18.5202702970       41.5041047864
  H        -2.5538263848       16.8981205903       41.8850852626
  H        -1.6815517092       17.3560284746       40.3243073666
  H         7.7490867452       11.2693649327        3.8572020087
  C         8.1702195773       10.2603742113        3.9403445987
  H         7.3301315973        9.4959113448        3.9490521521
  C         8.9980083781       10.1645120831        5.2425467739
  C         8.9175214884       10.0752923719        2.5744451015
  C         8.1672699259       10.3784732417        6.4923963467
  H         9.4082806893        9.1491421058        5.3052153739
  H         9.8280774914       10.8565276293        5.1820545872
  H         9.1437304040       11.0583441447        2.0501077864
  H         8.2808209246        9.5447429435        1.8245247009
  H         9.7471649564        9.3650119657        2.6411849476
  C         7.4621040434        9.1087349826        7.0187352580
  H         8.7364358179       10.8065271680        7.2692339102
  H         7.4963998493       11.2040467455        6.2254719631
  C         6.6616566826        9.2954768556        8.3187192009
  H         8.2678980733        8.4539036948        7.3976702900
  H         6.9388830863        8.5229381469        6.2852944135
  C         5.5108845045       10.2281759758        8.2524134140
  H         7.3705104558        9.6667728275        9.0480648474
  H         6.3726581505        8.2612671021        8.5642520773
  C         4.2548905384        9.4560885402        7.7824279041
  H         5.3884996500       10.5693375123        9.2873902890
  H         5.7989393548       10.9677287802        7.5348884058
  C         2.9714898708       10.3240573826        7.4968660671
  H         3.9992020263        8.7316433499        8.4929199439
  H         4.5037797109        8.8519898479        6.9215144851
  C         3.2120015023       11.6796884901        6.8247184371
  C         2.4192459115       11.0782510361        8.6894499571
  C         1.9093751768        9.5270901923        6.7368536981
  C         2.9567677021       12.8118679449        7.6006464301
  C         3.7617669898       12.1274259148        5.6224112802
  C         2.4041717925       12.4243656499        8.7985740354
  C         1.9255536150       10.3932587775        9.7977579732
  H         2.3254658188        9.3010737460        5.7663154135
  H         1.6194941470        8.6404217804        7.3157863676
  C         0.6546730156       10.3742159844        6.5128644213
  S         3.2937230673       14.3458713825        6.9268621124
  C         3.8755197292       13.4889366536        5.5487843541
  H         4.1123565734       11.4005096940        4.8710334579
  C         1.9782062381       13.0345580827        9.9076157671
  H         1.9237420884        9.2669596488        9.6818114236
  C         1.4373083675       11.0485219828       10.9356220524
  H         0.9340464918       11.4025043099        6.2928583590
  H         0.1074307819       10.2746306670        7.4511140269
  C        -0.4176660063        9.8587477496        5.5149498421
  C         4.2422753978       14.1917871078        4.2741142016
  C         1.5079622044       12.3840916930       11.0191056148
  H         1.9042511425       14.1197672322        9.9422809587
  C         0.9919080118       10.6096159597       12.2033764043
  H        -1.3186463552       10.4830265056        5.6970575496
  H        -0.7264320430        8.7917227725        5.7034019916
  C        -0.0909878784       10.0822378315        4.0536052405
  C         4.1423419595       15.6173117939        4.0487546466
  C         4.7285187823       13.4060317869        3.1067861610
  C         0.9872674605       13.0943245871       12.3030246830
  C         0.7762379212       11.7308375542       13.0090635014
  S         0.8987759584        9.0903262532       12.8944293951
  H         0.6968602468        9.3554533852        3.7666958205
  H         0.3670231731       11.0782978181        3.7769016406
  C        -1.2172857232       10.0433709104        2.9994758659
  N         3.8660865715       16.5634096257        5.0174290295
  C         4.4144518678       16.1614634706        2.8937476047
  C         4.8847668198       14.0112380786        1.8453816333
  H         4.8066551468       12.3552493642        3.1724176469
  C        -0.3378938615       13.8382572725       12.1144064155
  C         2.0221754578       13.8933890828       13.0777702521
  C         0.3721992402       11.2186444372       14.2649473010
  C         0.3383847412        9.8257305723       14.3467113837
  H        -1.7822559126        9.1145951256        3.1143286889
  H        -1.8883314645       10.8352540673        3.1247882567
  C        -0.6588254114        9.8640480133        1.6196137773
  S         3.6735350845       18.0510065514        4.4124889028
  N         4.0640493445       17.4924687752        2.9302498198
  C         4.7765016327       15.4870502377        1.7124129014
  H         5.2716189656       13.3850301822        1.0071443898
  H        -0.1192182282       14.6972979455       11.4636115495
  H        -0.5561458030       14.2524400920       13.0791431272
  C        -1.5755414325       13.0269952341       11.5464890361
  H         2.4246523804       14.6396571581       12.3700532386
  H         1.4673387143       14.3978967443       13.8703704887
  C         3.1270478575       13.0649907452       13.7076622611
  H         0.0582667899       11.8359511260       14.9678352110
  C        -0.0166935367        9.0988588645       15.6244363265
  H        -0.1860598326        8.9387658366        1.5040976453
  H         0.1612678806       10.5329259889        1.5058731233
  C        -1.6995379402        9.9077574305        0.5176411862
  C         4.9668004298       16.2202376349        0.4991768269
  H        -1.3532091081       12.3551633139       10.7767200936
  H        -1.9936056517       12.2147820624       12.2003606516
  C        -2.6569927492       13.8749016160       11.1055655808
  H         3.6091096588       12.3491859434       13.0122052307
  H         2.6867394163       12.4819248606       14.4820701597
  C         4.3271034462       13.8725061974       14.2848906390
  C        -0.0995113744        7.7153454782       15.7873849809
  C        -0.3362645196        9.8508610969       16.8595464842
  H        -2.3817750761        9.0432090251        0.4316276782
  H        -2.3780165428       10.6901114477        0.7147275234
  C        -1.1138096655       10.1443858326       -0.8704757275
  H         4.6468088070       17.2292291315        0.4813962425
  C         5.3401212066       15.8411530192       -0.7206205963
  H        -2.2245347754       14.6991198059       10.5224580349
  H        -3.1861417671       14.3106912933       11.9453969988
  C        -3.7106943141       13.0833591045       10.3472347286
  H         4.8288087255       14.2437666468       13.4530545640
  H         3.9172599395       14.7839782206       14.7947074138
  C         5.4364372626       13.0717945544       15.0373071007
  N         0.1152214607        6.8326820364       14.7404329952
  C        -0.4841031391        7.0583258918       16.9023199188
  C        -0.5469209304        9.2200688685       18.0832777033
  H        -0.1583387179       10.8648536202       16.9060649827
  H        -1.8677621745       10.3227550185       -1.6456105399
  H        -0.5801214205        9.3304960065       -1.3041610866
  H        -0.3780295996       10.9793954191       -0.7830587069
  S         5.8153209857       14.2607114530       -1.2098386029
  C         5.2970035400       16.8499678653       -1.7623031840
  H        -3.2342918888       12.6651816303        9.4181266876
  H        -4.0531031590       12.2362516032       11.0401376555
  C        -4.9208434002       13.9005182192        9.8666350870
  H         5.9673554671       12.3958779323       14.3074420739
  H         5.0581113989       12.5300037409       15.9280934268
  C         6.6130944041       13.9247656243       15.5078723380
  S         0.0648151047        5.2866086221       15.3027624675
  N        -0.3941681591        5.6802535341       16.8096546332
  C        -0.6758671035        7.7464197341       18.1307000441
  H        -0.5635954145        9.8286514203       18.9642444457
  C         5.8454092549       14.9428762764       -2.8937807321
  N         5.6771877295       16.3006114970       -2.9330234922
  O         5.1892387940       18.0832459948       -1.5396609781
  H        -5.4102952844       14.0902191416       10.8244619007
  H        -4.6554818312       14.8420307882        9.3699103922
  C        -5.7805277097       13.0120346955        8.8887351642
  H         6.5312931676       14.3455518709       16.5138540974
  H         7.4172149544       13.2000717259       15.5174663101
  C         6.9934487972       15.1426755530       14.6988327658
  C        -0.9419453982        6.9981471652       19.3096627878
  S         6.2999567622       14.1211618218       -4.3633429361
  C         5.7052510888       17.1143382419       -4.1477117578
  H        -5.1932310741       12.7680526243        7.8961726134
  H        -5.9765110631       12.0107544738        9.3539044514
  C        -7.1806505841       13.6580259702        8.5951329945
  H         6.0806236192       15.6386582706       14.3537386511
  H         7.4329708452       14.9013511809       13.7622037263
  C         7.7842049357       16.2593545567       15.4618733043
  H        -0.5262118696        5.9880255254       19.3243104895
  C        -1.4547702651        7.4497738883       20.5413576196
  H         6.2869597567       16.6378007346       -4.9436976521
  H         6.2898877182       17.9626791070       -3.9820450014
  C         4.2419175955       17.3360594330       -4.5856668973
  H        -7.7001819117       13.2553271929        7.7043644313
  H        -7.0017626474       14.7098391416        8.5490775354
  C        -7.9943434318       13.4230357427        9.9177427848
  H         7.0847792295       17.0987716225       15.5364327105
  H         8.0330644693       15.9512375565       16.4968800302
  C         9.1123890035       16.6279451447       14.7755622088
  S        -2.0693269785        8.9865470676       20.9721644261
  C        -1.3049401579        6.4785720467       21.6606669730
  H         3.9141237889       16.3217270165       -4.8694744668
  H         4.2101245287       17.9417174941       -5.5113266278
  H         3.5954866094       17.9336386622       -3.9304568351
  H        -8.7477263457       14.1940319903       10.0163175089
  H        -8.4641472247       12.3978987506        9.9820174525
  H        -7.4076146911       13.4923372041       10.8507192019
  H         9.8823044881       16.8832076764       15.4959430232
  H         9.4387901125       15.8487508952       14.1036360172
  H         8.9220223594       17.4245882347       14.1414152405
  C        -2.1972550137        8.2748069637       22.6236730301
  N        -1.9516039152        6.9325272082       22.7310936311
  O        -0.9050263023        5.3721111638       21.5441824213
  S        -2.9667016589        9.0032740976       24.0558644966
  C        -1.8774620175        6.1433023238       24.0348972154
  H        -2.1123913258        5.0820339503       23.8451387876
  H        -2.6512664582        6.5311462492       24.7347618174
  C        -0.4870336911        6.3741006552       24.6727008065
  H        -0.3879744316        5.8563137707       25.5966890444
  H        -0.3914802015        7.3603333054       24.7733741852
  H         0.2188568554        5.9256663129       23.9957423553
