352
i =
  H        -3.1720020420       14.8250853680       16.5432288097
  C        -3.0247947651       13.7897392086       16.5654511846
  H        -3.9957845503       13.3602763128       16.7527560968
  C        -1.9469185238       13.3938444125       17.5384394122
  C        -2.6776838126       13.3554327374       15.1471666688
  C        -2.4729793645       13.7131943911       18.9630902327
  H        -1.7179984312       12.3599529855       17.3307104731
  H        -1.0104364132       14.0317183967       17.3771894892
  H        -3.3984007513       13.8160468347       14.4701103750
  H        -1.7764480795       13.8435914245       14.8691675885
  H        -2.6753083309       12.2182108879       15.0817044011
  C        -1.7311063094       12.9001780630       20.0295712755
  H        -3.4838615905       13.4428382554       19.0109307825
  H        -2.3373779096       14.7099051691       19.1330087543
  C        -2.3302990820       13.0963529831       21.4112910601
  H        -1.7096923101       11.8265281870       19.8508268055
  H        -0.6699417643       13.2205548572       20.0689273039
  C        -1.4307194082       12.5846993998       22.5453048959
  H        -3.1944089601       12.4538186571       21.5775553077
  H        -2.6367948383       14.1682129764       21.6584778447
  C        -0.3062972165       13.6217806182       22.9239963973
  H        -1.9706578633       12.3572991189       23.4976783731
  H        -1.0125825923       11.6744369371       22.2058091234
  C         0.9238793796       13.0303449446       23.7090702318
  H         0.1178195985       14.0865777776       22.0181686111
  H        -0.5990643729       14.4366189060       23.6037297326
  C         1.3824552303       11.6635655051       23.0383971585
  C         0.5511453495       12.2958317659       24.9671549811
  C         2.1108117667       14.0552173979       23.8336301229
  C         1.1698630934       10.5288685024       23.8591053983
  C         1.7472835321       11.2988544542       21.7624488403
  C         0.6555436853       10.9333046883       25.0715055530
  C         0.0891633432       12.8854455232       26.1322998922
  H         2.2657671382       14.6777925326       22.9744202372
  H         1.7599189300       14.7595727466       24.5750004003
  C         3.3578070827       13.3076843087       24.2864663523
  S         1.5312043897        9.0326850143       23.0842634094
  C         1.9417619311        9.9497037491       21.6875638426
  H         1.8372632269       12.0318977659       20.9703903895
  C         0.2336583694       10.2599938658       26.1742370720
  H         0.0779284910       13.9351694939       26.1656832003
  C        -0.2365751942       12.2732730126       27.2201433704
  H         3.6353081114       12.5122169505       23.4977584727
  H         3.2072670278       12.8342534155       25.2148845211
  C         4.6484473815       14.1163550891       24.4222635035
  C         2.4965919707        9.3023786373       20.5153270042
  C        -0.1752211676       10.8935185631       27.3458342542
  H         0.2897379409        9.1069360709       26.1842936823
  C        -0.5763867153       12.7131454640       28.4635359627
  H         5.4290055187       13.4916478094       24.9434389690
  H         4.5449347499       15.0099891583       25.1008322088
  C         5.1893094955       14.5860474545       23.1005757251
  C         2.4482793597        7.9184338470       20.2015345357
  C         2.9620930436       10.0734244233       19.3715309866
  C        -0.4684530740       10.1976495072       28.6835303671
  C        -0.7066550177       11.5631510580       29.2968710951
  S        -0.8941119740       14.1621301434       29.2639129975
  H         5.8568173192       15.3719091312       23.4321472721
  H         4.4601231377       15.0883717275       22.4964728977
  C         6.0546270487       13.5575693598       22.1866102543
  N         1.9819953474        6.9919388364       21.0731830037
  C         2.7210499311        7.3351422803       18.9922428352
  C         3.2935317600        9.5455559450       18.1732332726
  H         3.4160249147       11.0394903250       19.5213976959
  C         0.6809535283        9.5194502096       29.2796786590
  C        -1.7315105776        9.3158892427       28.3270050476
  C        -1.1526667326       11.9772270451       30.5443363346
  C        -1.2217453249       13.3322268297       30.6768674689
  H         7.1658606067       13.6987789778       22.3807787801
  H         5.8319491061       12.4928986613       22.4399717895
  C         5.8335028895       13.7451581528       20.6703794983
  S         1.9891376658        5.5277658606       20.3992962403
  N         2.4125709490        6.0173316243       18.9387452672
  C         3.0422252755        8.0523458043       17.8572179073
  H         3.5283726709       10.3106374012       17.4109681136
  H         0.9609162210        8.9559065180       28.4024981360
  H         0.4062669319        8.7774899816       29.9423928443
  C         1.8874860318       10.2874387629       29.7640455937
  H        -1.4624054796        8.5270945347       27.6396705431
  H        -2.0721755452        8.8078004759       29.1985226244
  C        -2.9471623748       10.1322385670       27.7324437089
  H        -1.4104647323       11.3001022899       31.3217539371
  C        -1.5323358829       14.0617170497       31.9451910288
  H         5.6639424722       14.7994667382       20.4216691803
  H         4.8955073886       13.1857371615       20.3524917077
  C         6.9737447889       13.1217634576       19.7953634459
  C         3.1071086423        7.3627130111       16.5575310749
  H         2.1479556468       10.9596911890       28.8928301708
  H         1.5097958667       10.8145567907       30.5965538416
  C         2.9690838331        9.3465394971       30.1865154933
  H        -2.6959476000       10.6021582825       26.7686133728
  H        -3.1156898879       10.9194773757       28.4322152933
  C        -4.3071999319        9.4502083069       27.6805982128
  C        -1.6150437562       15.4292223529       32.1525836811
  C        -1.7357600135       13.2270051095       33.1627653097
  H         7.8591277007       13.6558324313       20.0450311785
  H         7.1872643779       11.9991612529       20.0672777435
  C         6.6318101486       13.2797267023       18.3002155630
  H         3.0310665180        6.3192812866       16.6078873395
  C         3.4492704483        7.8158650760       15.2954872999
  H         3.2743442787        8.6516927996       29.3531302687
  H         2.5748846752        8.7766191592       31.0143106318
  C         4.1128991672       10.0703295776       30.9218634823
  H        -4.2785191220        8.5199131207       27.0526193210
  H        -4.4430181201        9.1059291238       28.6890556243
  C        -5.2997087694       10.4458444375       27.1865654862
  N        -1.4168577424       16.3941586542       31.1327134658
  C        -2.0256227232       16.0191126693       33.3518495815
  C        -2.0872320261       13.8158994970       34.3823485923
  H        -1.6710687334       12.1583778689       33.0559670488
  H         6.6846744824       14.2519328106       17.9013798959
  H         7.2965420434       12.6627121100       17.6953062389
  H         5.6121832985       12.8612520836       18.0513262550
  S         3.9406156334        9.4306552782       14.9611875150
  C         3.5400674283        6.8082454329       14.1766816614
  H         4.3741629093       10.9787169709       30.4285032132
  H         3.6740669164       10.3806651323       31.8509749206
  C         5.3410835381        9.2522366315       31.2177694836
  H        -4.7196615187       11.1780925924       26.6678846362
  H        -5.7185693567       10.9312736683       27.9909575319
  C        -6.3074082968        9.6608458489       26.3853870922
  S        -1.5641656784       17.8983315171       31.8022133519
  N        -2.0571104594       17.4000806210       33.3192905859
  C        -2.3344976328       15.2997043186       34.5068457017
  H        -2.1009814439       13.1663666312       35.2062531412
  C         4.0515616929        8.7757191866       13.3143232050
  N         3.9600077972        7.4269005154       13.0848842246
  O         3.3074011910        5.5992755196       14.3545879543
  H         5.8899047718        9.8495967738       31.9621802071
  H         5.9650754349        9.2564691508       30.3348150378
  C         4.9959527781        7.9281816596       31.8068600358
  H        -5.7537110048        8.9677432547       25.7725096527
  H        -6.9348776930        9.1374918733       27.1138168468
  C        -7.1166946268       10.5781902431       25.5115269458
  C        -2.5857147711       15.9330832386       35.7908714933
  S         4.5170790886        9.7623917817       11.8780905855
  C         3.9345852852        6.6472656188       11.7751893760
  H         5.5586084283        7.6640271827       32.7049348095
  H         3.9976139939        7.8670305661       32.1618417018
  C         5.2743291792        6.8018066001       30.8333031210
  H        -6.5702008574       10.5703342269       24.5562017148
  H        -7.3451221219       11.5368218499       26.0440488020
  C        -8.4399953458        9.9037340397       25.2584632603
  H        -2.2425003060       16.9588478339       35.8688927293
  C        -3.0852694625       15.5371841153       36.9720190458
  H         4.5976312936        6.9858768977       10.9702260571
  H         4.0320207987        5.5784638649       12.0438017058
  C         2.4959634681        6.7802397358       11.1804880267
  H         5.1636811945        7.0500892756       29.7966066107
  H         4.6728946591        5.8958347508       30.9271502900
  C         6.7482979646        6.2821337142       31.0746170737
  H        -8.9102145102       10.3454540278       24.3861633430
  H        -8.2478015635        8.7852410371       25.1181402479
  C        -9.5196597858       10.0959911948       26.2615472723
  S        -3.6754272127       13.9376233036       37.4489614163
  C        -3.1328715687       16.5730912682       38.0349405351
  H         1.6334804632        6.6330145429       11.8126489142
  H         2.3265480864        7.6855206540       10.6291531962
  H         2.4974220508        5.9608793621       10.4981103055
  H         6.5827728911        5.3127287384       31.5399836018
  H         7.4239715254        6.9891522360       31.5980583470
  H         7.2391871682        6.0114387814       30.1140615865
  H        -9.9675966006       11.0250999180       26.4187701264
  H        -9.2111175042        9.8003817271       27.2149330342
  H       -10.3352888691        9.4021941936       25.9656296841
  C        -3.9377242392       14.6878480736       39.0083399590
  N        -3.7160182699       15.9936517302       39.1210238255
  O        -2.6456399648       17.7079234755       37.9741777673
  S        -4.5847665986       13.8363606221       40.4279939708
  C        -3.8582411907       16.7517924817       40.3369396705
  H        -4.3940664086       17.6285250169       39.9983039021
  H        -4.5037392318       16.3059008514       41.0801155014
  C        -2.4562169309       16.9485754695       40.9971065127
  H        -2.3455200777       18.0221588693       41.2249074655
  H        -2.2754690121       16.4622333647       42.0216875666
  H        -1.6100776251       16.7892802546       40.3647859781
  H         7.9898942435       10.8779252241        3.9226975097
  C         8.4928096522       10.0004637401        4.1466870933
  H         7.7723338993        9.2010408702        4.1065869447
  C         9.1800572646       10.0726585054        5.5174022495
  C         9.3818917104        9.6913907997        3.0022339180
  C         8.1694925933       10.3786919684        6.5744314706
  H         9.5581668616        9.1116945747        5.6381813123
  H        10.1443583717       10.6485897121        5.4167274011
  H         9.6248953982       10.6007241990        2.4464222694
  H         8.7930677362        8.9927521321        2.3743630124
  H        10.2753789811        9.1957419769        3.3451988654
  C         7.1579584328        9.2672088971        6.7307679881
  H         8.6980024161       10.6065183384        7.5135818405
  H         7.7020614887       11.3658356813        6.3650335672
  C         6.4621755851        9.3411101969        8.1130423849
  H         7.7212960220        8.2782268578        6.6321130023
  H         6.5398437835        9.2922171670        5.8826110040
  C         5.1632456036       10.1893813030        8.0982252895
  H         7.0745036927        9.8294780658        8.8563361810
  H         6.3286914087        8.3040310160        8.5035511579
  C         3.8996951345        9.5866794545        7.6010543234
  H         5.1751695227       10.5873190363        9.1044269641
  H         5.3639884502       11.0533213344        7.4391596605
  C         2.6874459077       10.4993029739        7.4730367733
  H         3.6132063884        8.7442787206        8.1700457108
  H         4.2073834473        9.1524711747        6.6031207151
  C         3.0464459991       11.8130359533        6.7913371844
  C         2.3479061434       11.2892312499        8.7446576573
  C         1.4926253564        9.6711324796        6.8092203253
  C         2.9395275415       12.9564566679        7.6005986894
  C         3.6870169256       12.0847588168        5.5775905486
  C         2.4993629475       12.6417961223        8.8472700395
  C         1.9125438514       10.6930120167        9.9697119192
  H         1.8313060183        8.9337147610        6.1526807651
  H         1.1182705502        9.0736454083        7.6297392098
  C         0.3985356342       10.3679875478        6.1162067011
  S         3.3441979758       14.3845037399        6.8539757358
  C         3.7419264142       13.4627538989        5.4240716558
  H         3.8118632571       11.2758116622        4.9168606385
  C         2.1827183895       13.2567137069       10.0187147274
  H         1.9094276087        9.6377263355       10.0068790587
  C         1.5790758250       11.3607231123       11.0963262607
  H         0.9449228924       10.9535946852        5.3254799677
  H        -0.0400180496       10.9965161211        6.8954121857
  C        -0.6737429360        9.5359379828        5.3728159005
  C         4.1193470515       14.1533387584        4.1804635166
  C         1.6880615929       12.6908591371       11.1947012967
  H         2.2612097806       14.3502773287       10.0006761599
  C         1.1520900563       10.9715982374       12.3929510724
  H        -1.5348537632       10.2492241806        5.4168122819
  H        -0.7072159734        8.6171214912        5.9504059953
  C        -0.3151396818        9.2965365128        3.8931506473
  C         4.1873820454       15.5040661162        3.8531385513
  C         4.6332653480       13.2571859751        3.0022580369
  C         1.2692823091       13.4014041253       12.4700436332
  C         0.9395846338       12.0853407640       13.2027921267
  S         0.8270521329        9.4533026687       13.0965585124
  H        -0.5950494736        8.2400711670        3.7492281111
  H         0.7955191107        9.4470432436        3.8206934220
  C        -1.1670664204       10.0830470566        2.8811746023
  N         3.9823743265       16.4659590463        4.8553452916
  C         4.5344384384       16.0112474450        2.6223054727
  C         4.8963744246       13.7259602853        1.6998853717
  H         4.6714753498       12.2051968794        3.1754776913
  C         0.0005617750       14.2483084685       12.1836886726
  C         2.3473147465       14.2521862002       13.1539675076
  C         0.6012436184       11.6778564163       14.4963239367
  C         0.5615819642       10.3009034747       14.5953780131
  H        -2.2506740856        9.8002014649        3.0118379480
  H        -1.1209105085       11.1794971822        3.0772979150
  C        -0.7691632565       10.0259300197        1.3635383056
  S         3.9883151374       17.8984407478        4.0319233982
  N         4.5126841996       17.4075863619        2.5559872522
  C         4.8652957478       15.2199367989        1.4830782422
  H         5.0820083805       13.0089605485        0.8912611476
  H         0.1191816809       15.0985981482       11.5317369229
  H        -0.1563967931       14.7089921658       13.1379372108
  C        -1.2017838098       13.4680209491       11.7789917440
  H         2.7880699607       14.8876117090       12.3606693701
  H         1.9879449244       14.9115987719       13.9446019116
  C         3.4216383055       13.4271946250       13.8819645496
  H         0.3370699641       12.4233433455       15.2844435164
  C         0.1337194797        9.6201322709       15.8564449811
  H         0.0921672246        9.3490583448        1.2522301205
  H        -0.4620629150       10.9820137642        1.0609304205
  C        -1.9046572803        9.4688727703        0.5096810649
  C         5.1585736162       15.8856007419        0.3200118507
  H        -0.9210771421       13.0334997302       10.8788953025
  H        -1.3834714011       12.6960725667       12.5202911678
  C        -2.4629324043       14.3321261604       11.3785327791
  H         3.6278249273       12.5334590132       13.2502673269
  H         3.0879346205       13.2219886777       14.9082842061
  C         4.7475584986       14.1272268483       14.0747373636
  C        -0.0106901353        8.2126281944       16.0530855225
  C         0.0629801267       10.4478978950       17.1345012174
  H        -1.6601045767        8.3905379703        0.3343744088
  H        -2.8530301048        9.4854587846        1.0595705699
  C        -2.1852222004       10.1556574347       -0.8168673737
  H         5.0788921116       16.9837178811        0.3300266273
  C         5.5344045573       15.4820080066       -0.9423347202
  H        -2.1680169983       15.0407287508       10.6285393941
  H        -2.8594379367       14.9805116288       12.1487642806
  C        -3.4906815698       13.3479198747       10.7470755417
  H         4.9656348669       14.6249926099       13.2072042070
  H         4.6683819168       14.7663452885       14.9523625319
  C         5.8944619357       13.1090178467       14.2868927570
  N         0.2429487965        7.3709716932       15.0399170954
  C        -0.2823365458        7.6202775904       17.2477890285
  C        -0.3655571225        9.8998812322       18.3147493214
  H         0.4283961420       11.4911851379       17.1804559935
  H        -3.1268647943       10.6100861708       -0.8383908870
  H        -1.9764233862        9.5239150093       -1.6580241457
  H        -1.4534555552       10.9741317775       -0.9654359594
  S         5.8219632423       13.9015694368       -1.5263896556
  C         5.5409859835       16.6026640274       -1.9815924520
  H        -3.0316883138       12.5265437368       10.1114846887
  H        -4.0615220010       12.7974784590       11.5069870483
  C        -4.4750690482       14.1976909208        9.8963301832
  H         6.0817442943       12.5172253499       13.3726315625
  H         5.5653328262       12.4681106614       15.0906783276
  C         7.2751630202       13.6850566344       14.6282738087
  S         0.0573662443        5.8238207908       15.5751469659
  N        -0.4001078497        6.2676520173       17.1359151703
  C        -0.4582123336        8.3777178258       18.4738236959
  H        -0.3729539473       10.4734288071       19.2252700393
  C         5.8660933141       14.6396251022       -3.0943423522
  N         5.8144458598       16.0236114649       -3.1504612433
  O         5.2523672097       17.8009739951       -1.8681140710
  H        -5.0339662132       14.7586171125       10.6222453045
  H        -3.9448043053       14.7765135607        9.2197598549
  C        -5.3345332944       13.2442482748        9.1242958661
  H         7.3403147659       13.8540162111       15.7013741135
  H         8.0353607838       12.8800438787       14.5231505765
  C         7.6978576145       14.9243014871       13.8749351555
  C        -0.7185637030        7.6690493400       19.6385970400
  S         6.4619450717       13.7474617698       -4.4928567435
  C         5.9844927316       16.7801382967       -4.3578572808
  H        -4.7989364725       12.5800606243        8.3514268232
  H        -5.5326427869       12.4325240756        9.7960288210
  C        -6.5928554932       13.9104298059        8.6458327249
  H         7.1038705451       15.0646431088       12.8984184029
  H         8.6568217572       14.5926763854       13.4936311321
  C         7.7020744237       16.2424203381       14.6388726514
  H        -0.4605884206        6.6099354650       19.5456928262
  C        -1.3309589554        7.9436418386       20.8603273575
  H         6.8131084865       16.3975245300       -4.9245374346
  H         6.2416142525       17.8444720633       -4.2873821863
  C         4.7022888419       16.5437147846       -5.1320028915
  H        -7.0249171616       13.4223649185        7.8391224611
  H        -6.4459762423       14.8949558466        8.2009292163
  C        -7.6460698799       13.8302228695        9.7745893417
  H         6.7178859067       16.5308686289       15.0495702730
  H         8.2682373249       16.0713436373       15.5415888884
  C         8.3497298379       17.3431822410       13.7811332105
  S        -1.9614730281        9.4837422528       21.2387925650
  C        -1.5125211112        6.8768508266       21.9149027623
  H         4.7200741994       15.7557913768       -5.8869030315
  H         4.3759794211       17.4632036188       -5.5965937089
  H         3.9645360242       16.0292866523       -4.5605459591
  H        -8.6232960000       13.4455769143        9.4079142386
  H        -7.3097477924       13.1535789662       10.6192735276
  H        -7.8376276485       14.7818706035       10.2545329784
  H         7.7776194988       17.4244504752       12.8787491300
  H         8.3455983060       18.3628920956       14.2596036472
  H         9.3530524698       17.1064855323       13.5260435197
  C        -2.4224886966        8.7932489313       22.8067474106
  N        -2.1546271278        7.4251860925       22.9517009191
  O        -1.1546039653        5.7412853550       21.8420973643
  S        -3.2310722961        9.6379184274       24.1205367059
  C        -2.2745730897        6.6869329894       24.2673703653
  H        -2.4654857477        5.6413866237       24.0632081491
  H        -3.2259360318        6.9863110165       24.6244227358
  C        -1.0619021620        7.0380136675       25.0858716878
  H        -0.8868702254        6.3348929002       25.8809396747
  H        -1.2494506547        7.9168726528       25.5911419061
  H        -0.1591560701        7.1073350585       24.4465296792
