352
i =
  H        -3.9442782759       14.4995945126       16.0528224766
  C        -3.5055016941       13.5620584241       16.2098924696
  H        -4.2419306173       12.8480383946       16.4971505122
  C        -2.6020365503       13.5016368705       17.3999724483
  C        -2.7728429565       13.0770566965       14.9396458825
  C        -3.2134573990       13.7360984577       18.7386752824
  H        -2.1194565634       12.5696080699       17.6798794689
  H        -1.7826548603       14.1611158454       17.2006244523
  H        -3.4849799245       12.6067542948       14.2290601381
  H        -2.5440153162       14.0784536894       14.4171142848
  H        -1.8993872844       12.4529604473       15.1588776808
  C        -2.0857688366       13.8831314286       19.8027583970
  H        -3.7694879742       12.8424126564       19.0514089117
  H        -3.8395374135       14.6073559430       18.7114424952
  C        -2.4734852878       13.6764748702       21.2152261272
  H        -1.1556637223       13.2046449521       19.5473551972
  H        -1.6157213977       14.8273222605       19.5277801721
  C        -1.4746663196       12.9652869089       22.1742924197
  H        -3.4184864967       13.0851771522       21.1974355865
  H        -2.6817269143       14.5981181951       21.6234358832
  C        -0.1703779404       13.7494009648       22.4229959931
  H        -2.0396817057       12.8904145028       23.1137405058
  H        -1.2338242529       11.9928715750       21.9465392358
  C         1.0036589746       13.1364119187       23.1630667688
  H         0.0727967751       14.3858414397       21.5712348198
  H        -0.5015457224       14.5037073979       23.1002231285
  C         1.3257342023       11.8163725842       22.3950442074
  C         0.5745510842       12.4176284079       24.4459437564
  C         2.2204926463       14.1132740179       23.3505372877
  C         1.0965748100       10.7659786312       23.1934410979
  C         1.7703095968       11.4184990184       21.1396811886
  C         0.6538582976       11.0826320875       24.4803166665
  C         0.1681193916       13.0852757280       25.6369578337
  H         2.3795467124       14.5999585657       22.3861105668
  H         1.8145142279       14.7087088414       24.1263468188
  C         3.5763810078       13.4197384473       23.7238407406
  S         1.4300509040        9.2664666044       22.4567915996
  C         1.8459921539       10.1208228541       20.9920073814
  H         2.0506815367       12.1704484067       20.3455738690
  C         0.2053846128       10.4097556895       25.6020165246
  H         0.2597176253       14.1469307691       25.6360909995
  C        -0.3225962775       12.4741545948       26.7678474195
  H         3.7825668750       12.5990070888       23.0750735506
  H         3.3779211249       13.0148703841       24.6723694716
  C         4.7589468123       14.3873687262       23.8033234302
  C         2.4828293710        9.3201227484       19.8438476384
  C        -0.2749914376       11.1113293492       26.8110120163
  H         0.1782092157        9.3137877525       25.6471475545
  C        -0.7542740902       12.8383896423       27.9461595723
  H         5.3701792391       14.0680544904       24.6543849004
  H         4.3821422719       15.3234975563       23.9801991027
  C         5.6865717405       14.4632572432       22.5142972083
  C         2.3693175398        7.9608538495       19.7073566799
  C         3.1086502398       10.0972329003       18.7363197018
  C        -0.7846480181       10.3655940805       28.0284443029
  C        -0.9882866019       11.6884538359       28.7312236987
  S        -0.9726387745       14.3341936585       28.7203612841
  H         6.3589428377       15.3038980278       22.6280257165
  H         5.2204954757       14.9262330243       21.6613527312
  C         6.1809364704       13.0030738155       22.1724559950
  N         1.9630198008        7.0277096140       20.6936118025
  C         2.7772068040        7.2386397506       18.5707953254
  C         3.5269751307        9.3603313158       17.6512964089
  H         3.5344418122       11.0631316473       18.9031774100
  C         0.3093551364        9.5813728918       28.8173010195
  C        -2.0217056493        9.5681717270       27.7826717406
  C        -1.5147880214       12.0267185190       29.9737339824
  C        -1.4985544312       13.4075759419       30.2238870202
  H         6.8282606764       12.8072450589       22.9675228216
  H         5.4985146436       12.2427994374       21.9906690921
  C         7.0482264670       13.0912182803       20.9779528728
  S         2.0819174464        5.4918118470       20.1712515042
  N         2.5921321759        5.8235977226       18.6947523937
  C         3.1456024797        7.8791981359       17.3846317415
  H         4.1223696591       10.0009487231       16.9706182619
  H         0.6556940121        8.9742147179       28.0658310280
  H        -0.2104820422        9.0768740604       29.6153253726
  C         1.4742858915       10.3452992010       29.3362084419
  H        -1.9176338127        8.6186907541       27.2649186099
  H        -2.3952058646        9.1952020916       28.7627556501
  C        -3.2287954526       10.4494882871       27.2162606990
  H        -1.6970455680       11.2777658169       30.6819413582
  C        -1.7502778913       14.0982779325       31.4990456919
  H         7.7126451332       12.2167622224       21.0357943280
  H         7.6956596097       13.8845425376       20.9707088835
  C         6.2967721364       12.9312292149       19.6081413228
  C         3.2237500036        7.2139680813       16.1454245223
  H         1.8687950447       11.0564910949       28.7346627844
  H         1.0157606893       10.8528744146       30.1353387707
  C         2.5117292849        9.4244935622       29.9069131441
  H        -2.9474771489       11.0306494432       26.3437543418
  H        -3.5407740903       11.0964225946       28.1154872963
  C        -4.3490526207        9.6513032789       26.8382233751
  C        -1.8692725813       15.4861665318       31.7345746451
  C        -1.9525065408       13.3395351337       32.7071497891
  H         5.7828991320       11.9768155009       19.4683133057
  H         5.6224141668       13.6880276072       19.6769919841
  C         7.1114625821       13.2875762902       18.3200323374
  H         3.2089227420        6.0770806167       16.0651847459
  C         3.4073699271        7.5679449004       14.8279426886
  H         2.7927268828        8.9147844406       29.0868702379
  H         2.1632912620        8.7240022242       30.6250042254
  C         3.8558463580       10.1958872142       30.3460953970
  H        -4.2384912547        8.9100095489       26.1447760126
  H        -4.5520611409        9.0813382944       27.6035793164
  C        -5.5600416155       10.5790934572       26.5784156170
  N        -1.6021248208       16.4135716614       30.7146666597
  C        -2.0504185869       16.1971322146       32.8941849441
  C        -2.1357663883       14.0386346766       33.9298446238
  H        -1.7036781669       12.2598116033       32.8103668501
  H         6.4724263853       13.3110859602       17.4249420129
  H         7.3744512295       14.3273688141       18.3357479538
  H         7.9700796109       12.7650580356       18.3110719308
  S         3.8319619457        9.2186655997       14.3254503250
  C         3.4237016509        6.5884206992       13.7558795082
  H         3.9967470738       11.1906869111       29.7564051162
  H         3.7597210312       10.3796184425       31.4993742069
  C         5.1788962803        9.3914501066       30.0994017721
  H        -5.3833060399       11.3425237582       25.7889952440
  H        -5.8495072440       11.0805836371       27.4581330766
  C        -6.7904419765        9.8139701191       26.0707963820
  S        -1.6457035407       18.0175407366       31.2613806657
  N        -2.0584000397       17.6702652467       32.7928947748
  C        -2.3050834373       15.4464359040       34.0871573587
  H        -2.3144431028       13.4659448251       34.7801911930
  C         3.8521424164        8.5009077961       12.7556417097
  N         3.7246051263        7.1522828827       12.5989161094
  O         3.1016495539        5.4301170816       13.8473670222
  H         6.0150058769       10.0895772224       30.3717660447
  H         5.3414246829        9.2452339560       29.0170347687
  C         5.1968655441        8.1486140604       30.8051739408
  H        -6.5922035792        8.8273289385       25.6168224411
  H        -7.2600313024        9.4840693891       27.0624346038
  C        -7.6896098286       10.6446271773       25.2428194817
  C        -2.5367620422       16.1834163111       35.2751192679
  S         4.5409938063        9.3354558913       11.3328791087
  C         3.7543926338        6.5051438394       11.3070641871
  H         5.7317558327        8.2425376627       31.6961775326
  H         4.3060702245        7.6356985215       31.0827596013
  C         5.8801033342        7.1061884481       29.9120713075
  H        -7.2557100916       10.8500304203       24.2591260263
  H        -7.8623083948       11.5974970819       25.6946680057
  C        -9.0785191065       10.0734966293       24.6842292709
  H        -2.1558398449       17.2179828175       35.3758042952
  C        -3.0561966621       15.9022711607       36.5584921442
  H         4.5110648173        6.9223930189       10.7448841269
  H         3.9076630283        5.4872507230       11.4557499548
  C         2.3811113959        6.5780398544       10.5955801307
  H         6.8609962855        7.3641639453       29.6723173797
  H         5.4420235692        6.7936001560       29.0731362570
  C         5.7679106151        5.7359192093       30.6187168511
  H        -9.5791468447       10.6464085534       24.1002690809
  H        -8.8742606001        9.1484026958       24.2556607169
  C        -9.9597166418        9.7328161973       25.8550911712
  S        -3.6526820793       14.3859794253       36.9550530538
  C        -3.0445213525       16.9283893157       37.6026901258
  H         1.5368457640        6.3166716104       11.2631895052
  H         2.0194768804        7.5561529218       10.2145867725
  H         2.2641664765        5.9043574961        9.7284597229
  H         4.6428060588        5.4882634437       30.6200927204
  H         5.9959279181        5.8838509114       31.7379124894
  H         6.2078981419        4.8164936959       30.1239616687
  H        -9.5059662316        9.0966465275       26.6508533399
  H       -10.9356450728        9.4830501878       25.5179619820
  H       -10.2514712436       10.6245167876       26.4395693369
  C        -3.7710905194       15.0519541100       38.6529733005
  N        -3.5105027389       16.3697207189       38.6914377981
  O        -2.7998547743       18.0922430963       37.3456196036
  S        -4.3839751275       14.1165262997       39.9861985784
  C        -3.5457326842       17.1147835566       39.9101445751
  H        -4.1217036225       17.9678956041       39.5842442638
  H        -4.0874745842       16.5961188832       40.6870116482
  C        -2.1668801858       17.5110610453       40.4462770824
  H        -1.3260875818       16.8228525211       40.2341933623
  H        -1.7536561922       18.4671227101       40.0774206807
  H        -2.1826233302       17.4996212546       41.6544574289
  H         7.1866909508       11.2312608077        3.4736894850
  C         7.7410179346       10.2739387249        3.4446617626
  H         6.8810143061        9.5994198447        3.4614644617
  C         8.6727271281       10.2770268953        4.6039703070
  C         8.4519210077       10.1811858637        2.0657230345
  C         7.9249250618       10.3653050523        5.8973194795
  H         9.3186135140        9.3793273369        4.6983071004
  H         9.4437651005       11.0796710256        4.3925097368
  H         7.8113314058       10.0582389138        1.1355849618
  H         9.0360134367        9.2975049047        2.1844012363
  H         9.0792056506       11.0452137218        1.7395278559
  C         7.2296033896        9.1221590639        6.3014743594
  H         8.3969225005       10.7662721813        6.7850482162
  H         7.3361627103       11.2750795009        5.6995652054
  C         6.4019966977        9.3511630188        7.6536837230
  H         7.9992610135        8.3236240808        6.4947733617
  H         6.5092939315        8.9113323091        5.5113762497
  C         5.1855725322       10.3089611597        7.5179305016
  H         7.1817121352        9.5097281438        8.3663712993
  H         5.9609070217        8.4846257274        8.1103937851
  C         3.9872474967        9.5809228181        6.9892436549
  H         4.9887014505       10.6635344475        8.5250579451
  H         5.5199955153       10.9582427649        6.7931453144
  C         2.6833860891       10.3869256734        6.8344608688
  H         3.7737498684        8.9829120679        7.6749979496
  H         4.2874378233        9.1289020884        6.0480537706
  C         3.0768004733       11.7712349349        6.1823347738
  C         2.3070546052       11.1133353434        8.1110661924
  C         1.6313339099        9.6792257297        5.9252089565
  C         2.7741736707       12.8248004087        6.9857755879
  C         3.6103299967       12.1986787669        4.9469118306
  C         2.2886750287       12.4387170587        8.2009495034
  C         1.8908454479       10.5011365511        9.3280821476
  H         2.1602714596        9.0348536630        5.2289978884
  H         1.2328633927        8.9277345257        6.5808592089
  C         0.4359042250       10.6108427515        5.6398843259
  S         3.1643537852       14.4154469980        6.3250613183
  C         3.7870912939       13.5211020305        4.8887994161
  H         4.0257096971       11.4128768728        4.3802201413
  C         1.8858431016       13.1055362954        9.3514046760
  H         1.8360474394        9.4470039957        9.2818771532
  C         1.5936605939       11.1900897460       10.5353872228
  H         0.5727063450       11.6574383620        5.4093201307
  H        -0.2159445645       10.5941643305        6.4787037641
  C        -0.3751280781       10.1833210000        4.4054460374
  C         4.2450607433       14.2874980215        3.6959515036
  C         1.5087038311       12.5133948976       10.5873437310
  H         1.9682678009       14.1623562413        9.4036777478
  C         1.1891302986       10.7880846840       11.7604281180
  H        -1.2463150130       10.6857712510        4.6211462603
  H        -0.5159295098        9.1357306702        4.4625762804
  C         0.1094159852       10.6917910883        3.0800212909
  C         4.2140456848       15.7087051248        3.4831808810
  C         4.8402980624       13.4760851024        2.6214996925
  C         1.1606538139       13.1851349894       11.8400883745
  C         0.9533837051       11.8623920589       12.5861376585
  S         0.8210720347        9.2927334607       12.5308294718
  H         1.1865463441       11.0772272111        3.0253977997
  H        -0.4695749386       11.5260396607        2.7132582179
  C        -0.0422589634        9.5933569139        1.9920878773
  N         3.7614655117       16.6801187078        4.4740779687
  C         4.5255247795       16.3817939885        2.2974944625
  C         5.0429363878       14.0617421641        1.3944658848
  H         5.0111606826       12.5070566466        2.6954564016
  C        -0.1823342998       13.8904888467       11.7376734309
  C         2.2848437397       13.9843795020       12.5871004058
  C         0.5375332206       11.5214719440       13.9072689719
  C         0.4392392331       10.2046948426       14.0215831437
  H         0.7111351307        8.7150220292        2.1067699592
  H        -1.0912175632        9.1481314385        2.0408461758
  C         0.1024073251       10.1455114268        0.5671842979
  S         3.8165624055       18.1664810039        3.7858142008
  N         4.3659929512       17.7553109093        2.3614294607
  C         4.7948895212       15.5511902045        1.1678739212
  H         5.4665025850       13.4696536737        0.6282521351
  H        -0.1755456814       15.0351661842       11.3985412087
  H        -0.4952201945       13.8448740447       12.7883164643
  C        -1.3504371151       13.0179758148       11.1196395817
  H         2.7322058133       14.6481002447       11.8624355717
  H         1.7605599385       14.6240278347       13.4688200927
  C         3.4531662958       13.1944777559       13.0502330007
  H         0.3236681081       12.2156443105       14.6338140602
  C         0.2657590705        9.3958895446       15.2295004686
  H         1.1956869541       10.0950175247        0.4842850585
  H        -0.1856156511       11.2881024056        0.5734507224
  C        -0.6122150865        9.3732416630       -0.5790720772
  C         4.9925182194       16.2386917094       -0.0680256849
  H        -0.9028809747       12.5033570947       10.3084718597
  H        -1.6549401655       12.2507887522       11.8835117232
  C        -2.4991451687       13.8136101516       10.7478197852
  H         3.7182054032       12.5149634783       12.2804572210
  H         3.2926926487       12.6194914916       13.9744930159
  C         4.7074290346       14.0889785408       13.4364687777
  C         0.1433186291        8.0226304182       15.4230302735
  C        -0.0519241774       10.2332385660       16.4486835746
  H         0.0931545351        8.8958011592       -1.2519936626
  H        -1.2370211450        8.5964325124       -0.1113137427
  C        -1.5275333529       10.3412528949       -1.3649800483
  H         4.4594729383       17.2484080948       -0.2151352526
  C         5.3701380930       15.7343793987       -1.2765862943
  H        -2.1907892004       14.4295686498        9.9217005250
  H        -3.0448057128       14.3810185968       11.5121989355
  C        -3.5448753406       12.9424386789       10.0775892103
  H         5.0363162354       14.7459703069       12.6344125324
  H         4.3428961692       14.6987696767       14.1956498838
  C         5.8366500011       13.3219783267       14.1332875793
  N         0.4328614295        6.9212742438       14.4601785432
  C        -0.2580902799        7.4160196439       16.6261790677
  C        -0.3649332669        9.6497514647       17.6806136510
  H        -0.0164898366       11.2898375575       16.4238563477
  H        -2.3532420716       10.3315703677       -0.6832855101
  H        -1.6529368129        9.9575372588       -2.3212349359
  H        -1.0208720814       11.2938563290       -1.4191354878
  S         5.6173444166       14.1289744731       -1.8139348895
  C         5.3453745773       16.7181450031       -2.4450922001
  H        -3.1964213862       12.6871263257        9.1465249325
  H        -4.0091419676       12.1941640625       10.6803151941
  C        -4.6755146503       13.9468706093        9.7944733845
  H         5.8754654964       12.4205579408       13.5962677540
  H         5.3466202099       13.0088447440       15.1071581115
  C         7.1639567130       14.1326874188       14.0833928972
  S         0.1365384635        5.4728680248       15.1147274147
  N        -0.2675397134        5.9819189216       16.5781334883
  C        -0.4210773613        8.2031044021       17.7983982318
  H        -0.3763487302       10.2025118262       18.5964626158
  C         5.9142236204       14.8351805655       -3.4195048155
  N         5.7270723002       16.1213133459       -3.5169259185
  O         5.1025950259       17.9279187833       -2.3261369333
  H        -5.0875734607       14.3081701501       10.6334206599
  H        -4.3239273261       14.8550924085        9.2723416342
  C        -5.6386647782       13.2513116427        8.8675027684
  H         8.0259965248       13.6500405711       14.6111888217
  H         7.5081603923       14.2644483626       13.0442925341
  C         7.1589214653       15.5557725617       14.7690321594
  C        -0.7734814273        7.4900135746       18.9228027341
  S         6.2288908626       13.8734900625       -4.8460265370
  C         5.6916234831       16.9320817614       -4.7014370875
  H        -5.1996969332       13.1317874056        7.9076662139
  H        -5.7609729162       12.2484622780        9.2883863842
  C        -7.0407480998       13.9388456374        8.7406311547
  H         7.6090979790       15.5311266054       15.7855894932
  H         6.1519473283       15.9589819262       14.8499019328
  C         8.0000772176       16.5742061690       13.9135410493
  H        -0.7022877566        6.3834791919       18.9556832754
  C        -1.3490165110        7.9406346020       20.1138571732
  H         6.4226058469       16.4374558313       -5.3469986041
  H         6.1709169627       18.0678778769       -4.6609523734
  C         4.3356422642       16.8595638914       -5.4880067065
  H        -7.4383854818       13.3803600650        7.9172715402
  H        -7.0582304836       14.8633053350        8.4665344018
  C        -7.8220193844       13.7430538104       10.0804195985
  H         8.9009449175       16.1320925970       13.6013574114
  H         7.4229754382       16.9159262405       12.9646023070
  C         8.2930334352       17.8173384903       14.5845872961
  S        -2.1638106480        9.4091384801       20.4806475731
  C        -1.5022162257        6.9497432787       21.2740608961
  H         3.5063736668       16.5252207298       -4.9324968742
  H         4.6013175603       16.2639662453       -6.2745779266
  H         4.1475373980       17.7174887944       -6.0159723699
  H        -7.5078123387       14.3202017288       10.8983273449
  H        -8.9250163414       13.9703199504        9.9771402587
  H        -7.7594425961       12.6286088185       10.4612152926
  H         8.8707024555       17.7000789234       15.4527017724
  H         8.6891698857       18.7249124219       14.0163457100
  H         7.4724180643       18.0986177096       15.2009480405
  C        -2.5191103668        8.7724095693       22.1378517873
  N        -2.2519131824        7.4976333950       22.3137713728
  O        -1.1955094946        5.7416712120       21.1818711177
  S        -3.2938661560        9.7561872178       23.3294012401
  C        -2.5316974339        6.7274380551       23.4520683609
  H        -3.0831760420        5.8566422317       23.1373964114
  H        -3.1835416193        7.3328761222       24.1141106559
  C        -1.2078371090        6.4457275457       24.1822372869
  H        -0.8822063903        5.4333443876       23.9839074092
  H        -1.3464476931        6.3733230741       25.3401958341
  H        -0.4342182680        7.1011106374       23.9377718487
