352
i =
  H        -0.9802998943       13.4785507761       15.5851165549
  C        -1.9865098126       13.8491741730       15.9502062430
  H        -1.9020486585       14.9588286549       16.1727463154
  C        -2.4602663563       13.0765168259       17.1810530007
  C        -2.9599495463       13.6093538221       14.8467828269
  C        -2.5239976658       13.8415604308       18.5326690367
  H        -3.5056210329       12.8230769702       16.9983445019
  H        -1.9745543323       12.1826741369       17.2037876048
  H        -2.7299334460       12.5400769331       14.4793661969
  H        -3.9912114034       13.5395786725       15.2031101958
  H        -2.8483084532       14.3665853416       14.1185605844
  C        -2.0223196113       12.9513647817       19.6731568686
  H        -3.5435717605       14.1810389261       18.6187111651
  H        -1.8469441885       14.6345253453       18.5438929182
  C        -2.1581904584       13.5205460447       21.1198202211
  H        -2.5670725509       11.9816945696       19.7481649495
  H        -0.9675650722       12.6941052158       19.4859286388
  C        -1.0576101957       12.8292378149       21.9741486683
  H        -3.1055286329       13.2131573217       21.5669648465
  H        -2.0593888209       14.6111755618       21.0614938703
  C         0.0260781961       13.7611830226       22.4815466932
  H        -1.5364910149       12.4664561920       22.8885135761
  H        -0.6949904019       11.9531807247       21.5191770037
  C         1.1963072286       12.9707514085       23.1296784749
  H         0.3593262706       14.3345114661       21.6235251993
  H        -0.4848872401       14.4379486089       23.1644440134
  C         1.6095318004       11.6198563144       22.4951699732
  C         0.6804901868       12.2864628634       24.4006052483
  C         2.2942394713       13.9862271409       23.5890102278
  C         1.4465638524       10.5673205792       23.3197017653
  C         2.2234244872       11.2884947599       21.2788837405
  C         0.8850017077       10.9303838635       24.5658289968
  C         0.0716232935       12.9135439887       25.4991855921
  H         2.4498164070       14.8395865188       22.9235198593
  H         1.9358443502       14.5070129982       24.5078525850
  C         3.5345354590       13.3292654341       24.1068024944
  S         2.0270638982        9.0789237889       22.6321335799
  C         2.4037206504        9.9647009309       21.1285674423
  H         2.4343355424       12.0567971812       20.5458316608
  C         0.6039153502       10.2930947330       25.7175715524
  H        -0.1339632558       13.9740079303       25.3372556351
  C        -0.1500679829       12.3378054709       26.6918728526
  H         3.7914394188       12.6059022248       23.3722265176
  H         3.3253525278       12.7114220471       24.9869052484
  C         4.5735869489       14.3558166166       24.4708755719
  C         2.6534092955        9.3247781319       19.7643995819
  C         0.0464257335       11.0063938375       26.8240046875
  H         0.7699186691        9.2177930687       25.8016494349
  C        -0.5362436854       12.7625432116       27.9397521396
  H         5.3699341997       13.8535562410       24.9704882317
  H         4.3913706248       15.0941460215       25.2872993678
  C         5.3429230475       14.9157155138       23.2342496487
  C         2.5074164606        7.9650128530       19.4351617051
  C         3.0800321791       10.1903510379       18.6063994242
  C        -0.3517566509       10.3705028771       28.1432838590
  C        -0.7333302632       11.6955479639       28.7958004411
  S        -0.8464546710       14.2324342306       28.7873735557
  H         6.1015637110       15.6627543447       23.4629310402
  H         4.7896024744       15.3668735213       22.4361191567
  C         6.2135508902       13.8010535255       22.6123774731
  N         2.0542300643        6.9879966510       20.2687325139
  C         2.7907132635        7.4111260022       18.1759590148
  C         3.3118338988        9.6437730492       17.3491782767
  H         3.3827988604       11.2210391066       18.7282478311
  C         0.7236994896        9.6114947441       28.9436165533
  C        -1.6975497147        9.5648506880       28.0331209788
  C        -1.0535187111       12.0304686445       30.1169856812
  C        -1.2049547754       13.4325992809       30.2023881274
  H         7.2983454542       13.9017976417       22.8376332080
  H         6.0385269587       12.8518655515       23.0407443631
  C         6.0901565966       13.8094109134       21.0857710000
  S         2.0133566715        5.5380126836       19.5850704505
  N         2.5573101362        6.0691516487       18.1214372766
  C         3.2404458198        8.2166914541       17.1053411871
  H         3.6975474945       10.2861710216       16.5843396064
  H         1.1128054231        8.7865704347       28.3539545810
  H         0.3669561025        9.1413394916       29.9085655084
  C         1.9790761352       10.5282748339       29.2652324594
  H        -1.6216744904        8.5318010771       27.6117414244
  H        -1.9343735337        9.4817997117       29.1005071869
  C        -2.9234585137       10.3124518647       27.5202649419
  H        -1.0441198617       11.3605251933       30.9185012653
  C        -1.5050540790       14.1636542189       31.5361356715
  H         6.1969507505       14.8251906453       20.7090527490
  H         5.2091509486       13.4083898180       20.6955608618
  C         7.2004797663       13.0472792533       20.4677811048
  C         3.5557393460        7.4623283231       15.8728734134
  H         2.4987302810       10.7415066355       28.3458739218
  H         1.6701865303       11.5283792275       29.6655019335
  C         2.7944323734        9.8802552199       30.3596193104
  H        -2.6687369120       10.8433518907       26.6198897386
  H        -3.1475269769       10.9634405749       28.3023736764
  C        -4.1502846659        9.4552761498       27.1321376117
  C        -1.5511477448       15.6057700237       31.6586808581
  C        -1.7423560182       13.4011022013       32.7488622799
  H         8.1804977640       13.2474948072       20.8905523335
  H         7.1274217946       11.9760285113       20.6095935197
  C         7.3753121054       13.2798932833       18.9642918989
  H         3.2366224530        6.4598631733       15.9064709898
  C         3.9580793063        7.9041341086       14.5800066868
  H         2.6356137635        8.8217438539       30.3357562312
  H         2.4210794795       10.2631674132       31.2809150385
  C         4.3008330988       10.1163300292       30.3975062927
  H        -3.8894933113        8.7652879070       26.3052356889
  H        -4.5127867216        8.8114943497       27.9431978096
  C        -5.3473542745       10.4096345223       26.7943923255
  N        -1.3472722734       16.4471055516       30.6431679363
  C        -1.7881281525       16.2657691508       32.8376262393
  C        -1.9832489812       14.0531206163       33.9547510442
  H        -1.6797065689       12.3011531978       32.6991383032
  H         6.3011630950       13.2407830306       18.5418775654
  H         7.7917665241       14.2612342361       18.6776308305
  H         7.9194221756       12.4801031986       18.4440909142
  S         4.2203615494        9.5304147602       14.1079110701
  C         3.9634787734        6.9081012032       13.5432886512
  H         4.4340814544       10.7150384826       29.5353838596
  H         4.4875866313       10.6637505106       31.3000898469
  C         5.1114417586        8.8524815649       30.2569260133
  H        -4.9833583986       11.1830282832       26.0749051687
  H        -5.6580021955       10.8858876100       27.7417998959
  C        -6.5539911763        9.6509759399       26.1855600681
  S        -1.4515410374       17.9798453800       31.1764151376
  N        -1.7729299067       17.6658791899       32.7514849681
  C        -1.9304067322       15.5684107495       34.0588145829
  H        -2.0390660730       13.4394532549       34.8419538724
  C         4.3987733092        8.8565632153       12.5231378301
  N         4.3872308584        7.4783490980       12.4083783775
  O         3.7566612146        5.6947065920       13.7514128591
  H         6.1923071598        9.0588878861       30.1792018775
  H         4.8181661720        8.3476352615       29.2648513085
  C         5.1038879062        7.8895074564       31.4672250889
  H        -6.1015894864        8.8714598945       25.5308353793
  H        -7.1340962910        9.2049574889       26.9142086175
  C        -7.3204284958       10.6659153455       25.3087372764
  C        -2.1991851124       16.3180506714       35.2718024220
  S         4.9345643847        9.6267462803       11.0457189082
  C         4.3967259272        6.6920409684       11.2047732210
  H         5.7957830493        8.2354032074       32.2684398819
  H         4.1415042968        7.9584087292       31.9111192769
  C         5.4593296734        6.4341601304       31.1168906838
  H        -6.6248224601       10.9677623682       24.4517279273
  H        -7.6417200784       11.5880413797       25.8826409826
  C        -8.5732009759       10.0502091022       24.6928247584
  H        -1.9357127808       17.3667681244       35.1720186542
  C        -2.7316450655       16.0642462358       36.5050807521
  H         5.1976718955        6.9659706014       10.5467233285
  H         4.6796057208        5.6719998175       11.4470355479
  C         3.0363506937        6.5238206856       10.6474722264
  H         5.2165326613        6.3142683654       30.1005010009
  H         4.8899770057        5.7217150336       31.6555967791
  C         7.0200341091        6.1517748864       31.3753728407
  H        -8.8068607006       10.7350472980       23.8472491801
  H        -8.3137053118        9.1037746592       24.2892448560
  C        -9.6790014748        9.8935817462       25.6934940554
  S        -3.3792283428       14.5287893512       37.0042493613
  C        -2.8821218106       17.1519726242       37.4409237227
  H         2.9257895889        5.5894593159       10.1298990282
  H         2.2995600491        6.6065456368       11.4215206370
  H         2.8694565702        7.3682230495        9.9926767308
  H         7.4294615303        5.2711697472       30.9636995446
  H         7.2208805803        6.1941956399       32.4559658562
  H         7.7894608888        6.8990905028       31.0282674196
  H       -10.0570680978       10.7758722459       26.1229726439
  H        -9.3628647910        9.2811554287       26.5246672827
  H       -10.5516468215        9.3862416166       25.4016411032
  C        -3.6641980210       15.3351758988       38.5620357696
  N        -3.5226341490       16.6898311816       38.5394550714
  O        -2.3305440566       18.2856159600       37.2464610447
  S        -4.2161007117       14.4912098379       40.0317976995
  C        -3.6751404188       17.6595458539       39.6471994891
  H        -3.8994167728       18.6052042775       39.1459977407
  H        -4.5326530293       17.3657096066       40.2198982350
  C        -2.3720600235       17.5867799615       40.4269935236
  H        -2.6409723976       17.5332148792       41.5000855833
  H        -1.6885825320       16.7688986528       40.1927715769
  H        -1.9274593785       18.5671502991       40.3574554689
  H         7.7626334116       11.3861714657        3.5199356110
  C         8.4136726596       10.5439907194        3.5502038505
  H         7.7627871884        9.7206132490        3.4654799199
  C         9.3691827674       10.5094243351        4.7456167237
  C         9.2854930411       10.6133976226        2.2766271451
  C         8.5847448670       10.8800901585        6.0057069400
  H         9.7966484022        9.5530785385        4.8154678867
  H        10.2019993888       11.2500780814        4.6116110599
  H         8.6493785749       10.5086868471        1.4316660028
  H         9.9186333127        9.7909596024        2.1182575476
  H         9.8488007219       11.4903519915        2.1268676882
  C         7.9114529439        9.5749782912        6.5223464463
  H         9.1908654391       11.3324453591        6.7424810472
  H         7.8167856678       11.5980307362        5.7154474657
  C         6.9602868364        9.9472286830        7.6660734653
  H         8.7623021878        8.9946674082        6.9751100002
  H         7.4620235100        8.9954298151        5.7307933483
  C         5.6819987074       10.7491021726        7.3566931729
  H         7.5633460388       10.6667061728        8.2164789954
  H         6.7704037577        9.1967014711        8.3403273340
  C         4.4933549633        9.9415891238        7.0316681833
  H         5.5539186086       11.3632087020        8.1887822827
  H         5.9535596697       11.3726991809        6.5036003765
  C         3.1848678472       10.7462309395        7.0836536834
  H         4.4914718927        9.0828494493        7.6380487118
  H         4.5774814712        9.5814395859        5.9640487029
  C         3.3687110186       12.0803166401        6.3795339582
  C         2.6529197887       11.4591268012        8.3189888257
  C         2.0227721885       10.0001827283        6.3130833088
  C         3.0747081950       13.1673697679        7.2222771709
  C         3.9178634667       12.6014536128        5.1624638421
  C         2.5412259258       12.7835968911        8.4274106451
  C         2.2916578702       10.8048944265        9.5485917336
  H         2.4420064318        9.5602195510        5.3634393401
  H         1.6974422972        9.2133289149        6.9243259489
  C         0.8604802202       10.9107723248        5.9566761536
  S         3.4200651354       14.6963992402        6.5030320440
  C         3.9748627450       13.9664231484        5.0442253914
  H         4.2269549564       11.9211235385        4.3453183954
  C         2.0636808952       13.3673649723        9.5761669353
  H         2.3480352060        9.7477417639        9.6376255057
  C         1.8222506196       11.3860047827       10.6569934009
  H         1.0752901711       11.7044289285        5.2183227897
  H         0.4231338196       11.3857390155        6.8566932727
  C        -0.2447829271       10.1183409227        5.2355469176
  C         4.3398280029       14.7590477882        3.7721443595
  C         1.7080881485       12.7350522070       10.7468061894
  H         1.9164008418       14.4346265990        9.7076426592
  C         1.3679426693       10.9902628986       11.8865868531
  H        -1.1021741303       10.7441162363        5.2694803415
  H        -0.4789441026        9.2995552491        5.9067798606
  C         0.0846576680        9.8442285682        3.7527409733
  C         4.5502444369       16.1753280556        3.6679829990
  C         4.6472895662       13.9662062983        2.5920591480
  C         1.4019314935       13.3852350652       12.0403993185
  C         1.1440901873       12.0752224722       12.7285772958
  S         1.0684622088        9.4828778145       12.5463815128
  H         0.6442975931        8.9190244491        3.6473293514
  H         0.7276532356       10.5999331929        3.3437399043
  C        -1.1903850137        9.6568279249        2.8919708610
  N         4.0256658504       17.0764935708        4.5847546683
  C         4.7596491981       16.7606127438        2.4275085407
  C         4.9527851159       14.5236999229        1.3329944308
  H         4.5791962780       12.8482794001        2.5462839692
  C         0.0445857974       14.2073433093       11.9717817901
  C         2.6130668470       14.1438302642       12.6393527381
  C         0.7968562332       11.6475784603       14.0023481395
  C         0.7127481414       10.2615040626       14.0585190476
  H        -1.9837884504        9.0238487383        3.4010196082
  H        -1.5484983071       10.6361501626        2.5844636740
  C        -0.7225416607        9.0940289488        1.5432284558
  S         4.0682314255       18.5449253520        3.9093999401
  N         4.5703727695       18.1637367976        2.4442297634
  C         5.0440899329       15.9717239259        1.2699043365
  H         4.9309991853       13.8552803173        0.4796170781
  H         0.1977911674       15.1601001177       11.3221940824
  H        -0.2721921091       14.6216553837       12.9892233767
  C        -1.1010496856       13.4909179594       11.2610421792
  H         3.0573739273       14.8206162725       11.9559350209
  H         2.2493865417       14.7631984922       13.4308325138
  C         3.8157508783       13.3170995907       13.0947742706
  H         0.5596866154       12.3654370281       14.8198950608
  C         0.3969034824        9.5951189982       15.2874462075
  H        -1.1218507061        8.0797556900        1.3888180576
  H         0.3319332663        8.9833112194        1.5107425644
  C        -1.2596571291       10.0407466338        0.3936541813
  C         5.1886801734       16.6348872192       -0.0043874621
  H        -0.9143925819       13.0826200518       10.2235215566
  H        -1.4098649656       12.6256523738       11.8995349923
  C        -2.3952034655       14.2383829433       11.1108617520
  H         4.0649712025       12.6446853316       12.2293114072
  H         3.5706248099       12.8524781060       14.0529239850
  C         4.9479051834       14.2676080714       13.3916977136
  C         0.3647869487        8.1902362524       15.4570127728
  C         0.0688606137       10.3243305306       16.5344641231
  H        -2.2933192752       10.0804463365        0.5716476157
  H        -0.8018174352       11.0838608545        0.4720710144
  C        -1.1116649115        9.4305952381       -0.9567166691
  H         4.8682502627       17.6904109927        0.0309305145
  C         5.4905197101       16.1206257047       -1.2394677824
  H        -2.4012144404       14.7962572781       10.2233344284
  H        -2.4647323217       14.8865884893       11.9834740138
  C        -3.6703812274       13.3772006209       11.1237874357
  H         5.2488271887       14.6992444834       12.4089833844
  H         4.5947373735       15.1240486631       13.8778097470
  C         6.2381186649       13.6149216883       14.0913601820
  N         0.6736473207        7.2832000182       14.4910493036
  C        -0.0214050182        7.5160644394       16.6440453234
  C        -0.3711020126        9.6743828330       17.7006570836
  H         0.0850853462       11.3448681293       16.4952170024
  H        -1.5499294590       10.0672095155       -1.7685579917
  H        -1.6348044709        8.5309280410       -0.8470302486
  H        -0.0203022308        9.3121357003       -1.1825884173
  S         5.9043972537       14.4418487192       -1.6542360421
  C         5.5213050172       17.0908482206       -2.3039920956
  H        -3.4859751615       12.5766386395       10.4636773394
  H        -3.8486889260       12.9501118098       12.1321666863
  C        -4.8914755276       13.9929913263       10.5255494696
  H         6.7037415724       12.9215890065       13.4561186869
  H         6.0079820328       13.1556214446       15.0632991701
  C         7.3519579778       14.7019802168       14.2065877799
  S         0.4531517812        5.7233045437       15.0642807391
  N        -0.0172716938        6.1333309790       16.5714774650
  C        -0.4949330102        8.1968603449       17.8135634016
  H        -0.4603103733       10.2516327510       18.5456352138
  C         6.0441888991       15.1042663670       -3.2533350408
  N         5.8126699155       16.4300446323       -3.3919889567
  O         5.3034661571       18.3010580433       -2.2791581253
  H        -5.6327130437       13.7895696579       11.3037493948
  H        -4.6825010681       15.0591657226       10.3942371807
  C        -5.3076348750       13.3847971838        9.1649287215
  H         8.1733297186       14.1976384315       14.6678631979
  H         7.7542828144       15.1343707586       13.2443706755
  C         6.9033652811       15.8648284726       15.0154009819
  C        -0.8740488993        7.4314011974       19.0038197841
  S         6.4632257122       14.2003513576       -4.6782367453
  C         5.9734259320       17.0973509053       -4.6450638682
  H        -4.4664685461       13.5294767367        8.5029038265
  H        -5.3654096418       12.3358615878        9.2799247739
  C        -6.6082936986       13.9623166699        8.5755573951
  H         6.1239803358       15.6269233897       15.7266569473
  H         6.5179038528       16.5715708560       14.2746817113
  C         8.0508948145       16.6294398750       15.7507335135
  H        -0.7982579295        6.3366138421       18.9818367131
  C        -1.3156526460        7.8211367442       20.2181754428
  H         6.8747222937       16.8442444130       -5.1029236109
  H         6.2881288815       18.1850383005       -4.4971255680
  C         4.7068566100       16.9998295782       -5.5185728526
  H        -6.7219045215       13.4267371534        7.6197128743
  H        -6.5114698698       15.0589011829        8.2895492965
  C        -7.8896246617       13.8636285381        9.4344448922
  H         8.1121547777       16.4133917813       16.7998501215
  H         8.9882948814       16.2893185878       15.3509068156
  C         7.7959703862       18.1321408220       15.5686027071
  S        -1.7555579569        9.4194337873       20.5697670376
  C        -1.3936262021        6.8543478140       21.3842004208
  H         4.1298911478       17.9866681965       -5.6370380358
  H         4.0947273437       16.3434145402       -4.9844570931
  H         4.7635871445       16.6760620526       -6.5172099835
  H        -7.7276100603       14.3948230135       10.4086837993
  H        -8.7702468320       14.3265471458        8.9774327584
  H        -8.1794981917       12.8160727490        9.7239624576
  H         6.7121612130       18.2934530361       15.7304259950
  H         8.3460261082       18.7819658509       16.3006282755
  H         8.0369081283       18.3945041152       14.5510289295
  C        -2.0262469008        8.8420203593       22.2439016961
  N        -1.9377994250        7.4934977852       22.4119708677
  O        -1.1762958468        5.6602959298       21.2738987640
  S        -2.6225767147        9.8247194394       23.5463604690
  C        -2.0931340251        6.8576100183       23.6581305068
  H        -2.3668645604        5.8177494159       23.5212687159
  H        -2.8234486087        7.2859840126       24.3591181302
  C        -0.8210722977        6.8266407113       24.4462751141
  H        -0.4686209612        7.7783463146       24.7104583607
  H        -0.0296273349        6.2740733973       23.9240352353
  H        -0.9667511513        6.2711841273       25.4166417522
