352
i =
  H        -3.9568888374       14.5853413293       16.6081534109
  C        -3.4028151336       13.6365201336       16.4313546146
  H        -4.1995308718       12.9722426370       16.7819458257
  C        -2.2350394116       13.6249442234       17.4234449969
  C        -3.0258678615       13.5172525746       14.9161945173
  C        -2.7530053570       13.5510673694       18.8783687810
  H        -1.6789974494       12.7511867992       17.2924567911
  H        -1.5825251800       14.4274497447       17.1684698858
  H        -3.8434139319       13.3490124176       14.2427304304
  H        -2.7674195201       14.4521318674       14.5447444519
  H        -2.2393020083       12.7718803744       14.7638782306
  C        -1.6241258148       13.4507815802       19.9434011281
  H        -3.6624684493       12.9282110570       18.9921720032
  H        -3.1438683430       14.5907713293       19.0492748126
  C        -2.1399635574       13.3054292702       21.4059683684
  H        -1.0121247919       12.5403020866       19.7276987608
  H        -0.9541019089       14.3394327987       19.8018019568
  C        -1.1159952769       12.7096068010       22.4013432797
  H        -3.1141545837       12.7905170796       21.2002848020
  H        -2.3271678007       14.2729706501       21.6975885489
  C         0.0393429352       13.6239230376       22.5927846539
  H        -1.6681236153       12.7011174924       23.3074915155
  H        -0.7902729020       11.6727115530       22.2384550585
  C         1.1965079133       13.0628065385       23.4332718865
  H         0.4235805420       13.9650127982       21.5977061562
  H        -0.3183063104       14.6142027527       23.0174045552
  C         1.6149499422       11.8280821625       22.7642925050
  C         0.6935775575       12.3722203868       24.6411403251
  C         2.3383327295       14.1481180188       23.7053830797
  C         1.5611724989       10.7112530280       23.6191936179
  C         1.9281578383       11.4252646092       21.4231397758
  C         0.8414939060       11.0482231628       24.7794804797
  C         0.1096500744       13.0168608918       25.7634357857
  H         2.4477638708       14.6083784170       22.7458313807
  H         1.9915902126       14.8840833469       24.4532820929
  C         3.5819534338       13.5587834897       24.3305369586
  S         1.9785128497        9.1907854125       22.8454878295
  C         2.1443216177       10.0827397412       21.2912209057
  H         1.9430873036       12.2028391418       20.6920781641
  C         0.2697067591       10.4194554274       25.8587220808
  H         0.0189052133       14.0548805456       25.6813827542
  C        -0.2424231719       12.3541850287       26.9339184316
  H         3.7326830913       12.5728205947       23.9452386436
  H         3.3277125566       13.3423587676       25.4186714432
  C         4.8804358897       14.3556519858       24.1511756280
  C         2.3996402278        9.3673143237       19.9877809737
  C        -0.2193252012       11.0207920920       27.0405845339
  H         0.5028797372        9.2974954749       26.0386802220
  C        -0.7517077135       12.8033767103       28.1577050757
  H         5.6341763825       14.0776446753       24.8132726958
  H         4.5332296966       15.3382841970       24.4832990161
  C         5.4604937727       14.3053191645       22.7591966975
  C         2.2042577814        7.9438192429       19.7798126297
  C         3.0456575975       10.1000869201       18.9071493209
  C        -0.7050998090       10.3489493049       28.2990912696
  C        -1.0396512035       11.6887845960       28.9246260821
  S        -0.9864561474       14.2743382651       28.8979126392
  H         6.2990237192       15.0206297838       22.6690162736
  H         4.8090005529       14.8007812852       22.1355175432
  C         5.8267268841       12.9845024053       22.1762688540
  N         1.7884682722        7.0478301822       20.7130809512
  C         2.5625771170        7.3141072602       18.6073472704
  C         3.4084348818        9.4866900387       17.7592945950
  H         3.2118852702       11.0620034081       19.1782476350
  C         0.4566873443        9.5263629874       28.9869001588
  C        -1.9012967313        9.3939342624       28.0040289073
  C        -1.3667492548       12.1306262083       30.2712932148
  C        -1.4027175242       13.4768530647       30.3370952859
  H         6.7867695976       12.6182144336       22.5239852434
  H         5.1446525481       12.1811664568       22.4541912503
  C         6.0194606534       13.0673737449       20.7067315160
  S         1.6759410038        5.5720127790       20.0897559237
  N         2.3648398477        5.9385620728       18.6749683062
  C         3.0859321460        8.0442849495       17.5105892501
  H         3.8265330119       10.1615276681       17.0595232617
  H         0.8571464722        8.6393997776       28.4655684636
  H        -0.0263308955        9.0476666949       29.9207215179
  C         1.5867549820       10.4178465530       29.4671988055
  H        -1.6339480714        8.7984780878       27.1316527334
  H        -2.0220983314        8.7627329975       28.8612624482
  C        -3.1515452423       10.1997416505       27.7053504769
  H        -1.5691787396       11.4365068992       31.1378065109
  C        -1.7283778530       14.2321291999       31.5954792067
  H         5.2284140835       13.6379540925       20.2867094544
  H         5.8765691995       12.0422684790       20.4019577360
  C         7.4040613008       13.4491029981       20.2093828543
  C         3.1935412293        7.3165429636       16.2716533336
  H         2.1727877763       10.9865979942       28.7532431087
  H         1.2351230606       11.0551445802       30.2080333319
  C         2.6607522557        9.5476677475       30.2475654737
  H        -2.9090555482       10.9737332521       26.9458616200
  H        -3.5412058178       10.8559709140       28.5141730289
  C        -4.3010975971        9.3028637759       27.2128714108
  C        -1.7562190368       15.7001936297       31.7435163744
  C        -2.0128112241       13.4828006573       32.8272796658
  H         7.8336325900       14.3344863990       20.5478306496
  H         8.1117685562       12.6465890268       20.3240196155
  C         7.4347347571       13.4515082928       18.6251436818
  H         3.2004607583        6.2697842680       16.2686240836
  C         3.4301730932        7.7182083759       14.9807854766
  H         2.9749143314        8.7372245331       29.6417065266
  H         2.2995403879        9.0992906642       31.1248788203
  C         3.9497290322       10.2950042618       30.5861299445
  H        -3.7900586389        8.6463573874       26.4909067746
  H        -4.7253267833        8.6496461937       27.9973540464
  C        -5.3206530987       10.0434865979       26.4454431523
  N        -1.4624677822       16.5605067164       30.6723012034
  C        -2.2012293345       16.3709140790       32.8309449406
  C        -2.1885257593       14.1566524370       34.0121558882
  H        -1.9931685242       12.4440829648       32.8961668641
  H         7.3638310569       12.3829539307       18.3450706191
  H         6.6536549729       14.0743119173       18.1570909183
  H         8.3250367394       13.8316509612       18.2440449393
  S         3.9403345754        9.3123081266       14.5426356080
  C         3.4610892660        6.6887100202       13.9020607307
  H         4.0857734645       11.0445176943       29.8278994547
  H         3.8658340945       10.7804103784       31.5764589632
  C         5.2380329703        9.4687242591       30.6992148518
  H        -4.8212439482       10.4617345109       25.6084648991
  H        -5.6046827517       10.8534757064       27.0944252611
  C        -6.6243058228        9.2870614262       26.1402124230
  S        -1.9937374676       17.9807243432       31.0961550033
  N        -2.3803539074       17.7448059566       32.6154159899
  C        -2.4820413305       15.6257138480       33.9586047289
  H        -2.2506655370       13.5955195048       34.9822985902
  C         4.1177742520        8.6771864434       12.8918027654
  N         3.9531669691        7.3054306587       12.7934732938
  O         3.1839876425        5.4928071530       14.1076454739
  H         6.0906730339       10.2235068994       30.7709936815
  H         5.3317154561        8.9400338520       29.6950117097
  C         5.2924230119        8.4444172802       31.8154668610
  H        -6.4752358985        8.5699195685       25.3816443666
  H        -6.8386267462        8.6577086103       27.0399405935
  C        -7.6847755660       10.3835850411       25.7938425070
  C        -2.8377276716       16.4023946941       35.1000361589
  S         4.5778428152        9.5385773065       11.4340960319
  C         3.9848039400        6.6316715135       11.5164794466
  H         5.6987074023        8.8911003987       32.7107487271
  H         4.3025816544        8.1379062273       31.9588875017
  C         6.1703698613        7.1933178407       31.5453954295
  H        -7.2907527488       11.0400873291       25.0764105080
  H        -7.8699372511       10.9152852082       26.6971082800
  C        -9.0339041855        9.7326049034       25.4583411227
  H        -2.9769095233       17.4654046910       34.9868374139
  C        -3.3227549819       16.0726104368       36.3664949466
  H         4.9532750540        6.9498953759       10.9487751340
  H         4.1429164894        5.5413560355       11.6147156720
  C         2.7071449757        6.6527538204       10.6846946452
  H         5.8468077160        6.4999310070       32.3490242179
  H         7.2275118798        7.2428845052       31.7315073512
  C         5.9978118471        6.4849320227       30.1373024690
  H        -9.3046970180       10.0619380055       24.4441094568
  H        -8.8758411430        8.6245380596       25.3451545666
  C       -10.2030281344       10.0397737231       26.4559203589
  S        -4.0027187003       14.6396312955       36.9405170357
  C        -3.4307301716       17.2608756818       37.3029228803
  H         2.2352369290        7.6023995998       10.8491003825
  H         2.8939881410        6.7045912318        9.6405729734
  H         2.0092993660        5.9030985170       10.8707648722
  H         6.4058767152        5.4721211948       30.2108103859
  H         6.6276354885        7.1317489290       29.4259043964
  H         4.9823519399        6.6265069795       29.7816854060
  H       -10.0075338047       10.8843593723       27.0334696495
  H       -10.3190831107        9.2420201864       27.1794727347
  H       -11.0863779777       10.1470255137       25.8530475294
  C        -4.1921430333       15.4587078149       38.4988549529
  N        -3.9770276426       16.8224680574       38.4607804904
  O        -3.0881968026       18.3727072458       37.0767542927
  S        -4.6314598980       14.7351656260       39.9947276191
  C        -4.1053067827       17.7643183259       39.6516152906
  H        -4.4641668075       18.7873484217       39.3227779726
  H        -4.7994144041       17.3878148341       40.3387479977
  C        -2.7977044989       17.9622724127       40.4388278541
  H        -2.9263472882       18.8168045577       41.0656308536
  H        -2.4043581400       17.1325826973       41.0430662192
  H        -1.9430267599       18.2719455251       39.7545656482
  H         7.2077884125       11.7707438879        3.0224278352
  C         7.7497541487       10.8450210459        3.3623268010
  H         6.9575736260       10.1461590828        3.4784970012
  C         8.4925642728       10.9211272922        4.7003589621
  C         8.4181641698       10.3383472619        2.1221546359
  C         7.5709749689       11.0478087388        5.9265071024
  H         9.0956307844       10.0376456089        4.7421953525
  H         9.1551907933       11.7883050413        4.7027602403
  H         9.4793818472       10.0476783985        2.3887959064
  H         8.6898291989       11.1301900103        1.3652740804
  H         7.9099100479        9.4994490001        1.7046507247
  C         6.9948367241        9.6524847564        6.3757493507
  H         8.2218412140       11.5618879100        6.7211597162
  H         6.7606640892       11.7013717109        5.6397178741
  C         6.3837524882        9.5772008825        7.7551346885
  H         7.7063059062        8.8674664650        6.2333766475
  H         6.1060507120        9.3717951217        5.7859325384
  C         5.1586645995       10.4424714451        7.9637045971
  H         7.0639678307        9.8492637689        8.4400925149
  H         6.2663967625        8.6041547336        8.1179937792
  C         3.9148948547        9.7137905225        7.3693600595
  H         5.0466552526       10.9554949967        8.9650905800
  H         5.3745105699       11.2750977451        7.2841056662
  C         2.6789179026       10.5647080722        7.2118124147
  H         3.6552899339        8.8959929615        7.9815449426
  H         4.1797622289        9.2722779540        6.3888506421
  C         3.0644002147       11.9396666463        6.5767682652
  C         2.3055833982       11.3445420161        8.4516925546
  C         1.5805582820        9.8944516235        6.3502913328
  C         2.9465006204       13.0423171620        7.3920416937
  C         3.6495950458       12.3227095280        5.3869413300
  C         2.3710962253       12.7066391791        8.5843811399
  C         1.8368609166       10.8209680680        9.6415542321
  H         1.9956074274        9.5223867503        5.4383106642
  H         1.2875990890        9.0829384458        7.0389736505
  C         0.3792791400       10.8092724013        6.0674663428
  S         3.4215528081       14.5969604699        6.6983332409
  C         3.8868533873       13.6953697702        5.2596440783
  H         3.6396949550       11.6096776682        4.5613042185
  C         2.0439869843       13.3112013729        9.7525551770
  H         1.8833096920        9.7062586489        9.6345844179
  C         1.4666704261       11.4602559381       10.8339313850
  H         0.4745746851       11.8655800550        5.7262724350
  H        -0.2453217890       10.7413003796        6.9919908166
  C        -0.5998718448       10.2297937360        5.0799795204
  C         4.2564570823       14.4153055345        3.9683089344
  C         1.5485923201       12.8022449177       10.9338830414
  H         2.0691472899       14.3564321399        9.7512821232
  C         1.0703671565       11.0155465968       12.0828464141
  H        -1.4634164906       10.8376342292        5.1304426598
  H        -0.8478894881        9.2484736624        5.3666684740
  C        -0.0453529951       10.4052282057        3.7201493275
  C         4.1498672877       15.7668856145        3.6915397937
  C         4.8223944668       13.5693123176        2.9123877389
  C         1.1226491614       13.5017562783       12.2681457316
  C         0.9719694984       12.1313932697       12.9998279007
  S         0.7314500093        9.5464788428       12.8736115056
  H         0.8317696964        9.7120226861        3.6800307514
  H         0.1977600919       11.4061519687        3.4006017639
  C        -1.0777576496        9.9001266656        2.6825207200
  N         3.8752298198       16.7693809969        4.6618954141
  C         4.4913653855       16.2876656623        2.4740513303
  C         4.9599019245       14.0384583531        1.6456870471
  H         4.8804612000       12.5017127410        2.9054858583
  C        -0.1874854358       14.2677593245       12.0769785470
  C         2.2155510301       14.2370690021       12.9774144791
  C         0.4695316534       11.7899722791       14.2872936028
  C         0.3348033643       10.4118713084       14.3483775527
  H        -1.9530814707        9.6103314562        3.1470274725
  H        -1.3237776420       10.7754306523        2.0340388058
  C        -0.4695075615        8.9791832354        1.6083086171
  S         3.8558528209       18.2008113680        3.8671015233
  N         4.2904013312       17.6770959694        2.3996571621
  C         4.8089984416       15.4971153376        1.3566778044
  H         5.2754143671       13.3711006967        0.8585431877
  H        -0.0395293532       15.1038957571       11.3229848069
  H        -0.4641213662       14.8148349973       12.9114675424
  C        -1.4389386379       13.4022055812       11.6818057142
  H         2.6764215500       15.0121688177       12.2796305620
  H         1.8472291494       14.8331595412       13.8817478770
  C         3.4046022531       13.3507035727       13.3995902251
  H         0.3395358448       12.5666029766       15.0052222244
  C        -0.0459418673        9.5908276535       15.5523043557
  H        -0.1441928795        8.1095863416        2.1032109360
  H         0.4384362763        9.4243843985        1.2155994030
  C        -1.3807207764        8.6732256700        0.3949422684
  C         5.0117962370       16.0872086118        0.0564283887
  H        -1.1937843021       12.5882459260       10.9192591122
  H        -1.8507192395       12.8083341947       12.5836057882
  C        -2.5829316961       14.1987222632       11.1220447637
  H         3.6173313865       12.6805362828       12.5310743094
  H         3.0962780776       12.8644168164       14.3083019364
  C         4.5501983537       14.2890710865       13.8008432416
  C        -0.0585761216        8.1655282017       15.6131955319
  C        -0.2855273260       10.2599165595       16.8360991257
  H        -1.2493328555        7.6368362358        0.1245793227
  H        -2.4441251778        8.6464843242        0.6415300067
  C        -1.0365695665        9.5864657883       -0.8855829184
  H         4.6747034887       17.1325758479        0.0547784374
  C         5.4358234601       15.6857092694       -1.1513368890
  H        -2.2401991849       15.0281495684       10.5317881837
  H        -3.0685903763       14.7212085186       11.9229873759
  C        -3.6356472260       13.2209627194       10.5158505213
  H         4.9178440374       14.7256485653       12.9065968172
  H         4.0851603788       15.1456182780       14.4069002517
  C         5.7405572349       13.6451180190       14.5909922935
  N         0.3262800844        7.2928486527       14.6038870654
  C        -0.4526075910        7.5088337004       16.7556736130
  C        -0.5716891608        9.6363676125       17.9935875728
  H        -0.1471796281       11.3173776702       16.9182913620
  H        -2.0031444111        9.9611244628       -1.3170723735
  H        -0.4562984051        8.9770292646       -1.6020562358
  H        -0.4290430709       10.4275966385       -0.5009319450
  S         5.8655975931       14.1378654259       -1.6051456582
  C         5.4590710674       16.6377215505       -2.3488601135
  H        -3.2748873268       12.7938233439        9.5576677101
  H        -3.9456145671       12.4349801586       11.2576483816
  C        -4.9298426722       13.9466432892       10.1241261192
  H         5.6400463645       12.5587629188       14.5908728663
  H         5.6623702117       14.0509693777       15.5570745239
  C         7.0045573319       14.0999839412       13.9502477964
  S         0.1661849128        5.7539451318       15.1301500770
  N        -0.2842610454        6.1129998569       16.6300612349
  C        -0.7367922593        8.1663184660       17.9822495313
  H        -0.8354433965       10.2222516758       18.8906906911
  C         6.1320145441       14.6241356153       -3.2302457140
  N         6.0385824425       15.9496272100       -3.3732197096
  O         5.0984044067       17.8217104774       -2.3041815456
  H        -5.6020371645       13.6608619061       10.9214101842
  H        -4.9429830238       15.0776679088       10.1775619169
  C        -5.5271870823       13.4431997397        8.7684252568
  H         7.7759580419       13.3354751578       14.0886183459
  H         7.0299581998       14.0072917486       12.8724487781
  C         7.5681742491       15.3875484404       14.5811856792
  C        -1.0481189823        7.3861660422       19.1155730416
  S         6.5316194084       13.5240590517       -4.5647181923
  C         6.2181361205       16.7476663113       -4.6033567608
  H        -4.7734986743       13.6570395020        8.0135179569
  H        -5.5814262948       12.3511564098        8.6792729038
  C        -6.8199380023       14.0162476450        8.1562843332
  H         8.5722778805       15.4492694054       14.3111947112
  H         7.5931243511       15.2233513719       15.6439678608
  C         6.9363884228       16.6789109258       14.2637071681
  H        -1.1431433759        6.3184303457       18.8322592606
  C        -1.3562676333        7.6898321316       20.3992496593
  H         6.9163730632       16.2833467047       -5.3638547377
  H         6.6016966665       17.7459314831       -4.3830919671
  C         4.8509264319       16.8380387483       -5.3051435921
  H        -7.1545972706       13.4534896315        7.3191701546
  H        -6.7083577163       15.0904263076        7.8651839013
  C        -7.8480279939       14.0113869999        9.2258282175
  H         6.7466709297       16.7344756077       13.1962783991
  H         6.0034310051       16.8401232021       14.7378677797
  C         7.7221903594       17.8594189846       14.7851758540
  S        -1.7326539539        9.2249904175       21.0392441746
  C        -1.6168897608        6.5320862991       21.2657749585
  H         5.0880246105       16.9919940081       -6.3778991678
  H         4.1441620384       17.7336412100       -5.0897708370
  H         4.3288832646       15.9491154004       -5.3314778729
  H        -7.6132303209       13.2642190273       10.0142390732
  H        -7.8993963480       15.0412340925        9.6249257200
  H        -8.8128971530       13.8677106209        8.9033829801
  H         8.3866503932       17.5643833573       15.5653851051
  H         8.3497074731       18.2317378503       13.9698788696
  H         7.1062074890       18.6825210435       15.0251986813
  C        -1.9264631156        8.4097127091       22.5026325514
  N        -1.9100735965        7.0363447636       22.4639393617
  O        -1.4564307353        5.3746940864       21.0596950960
  S        -2.5793485755        9.1557731975       24.0035345240
  C        -2.1475005159        6.2203565141       23.6372886054
  H        -2.4740719998        5.1644015799       23.3775509014
  H        -2.8215239650        6.6159116752       24.3161339163
  C        -0.7848086020        5.9989671838       24.2917435049
  H        -0.0776383641        5.5578983006       23.5791885050
  H        -0.8644891575        5.3976030885       25.2105669562
  H        -0.3076733301        6.9056046419       24.6395699834
