352
i =
  H        -3.6239907128       14.9734519709       16.6632597574
  C        -2.9815663459       14.0302542812       16.5933553321
  H        -3.7866544769       13.2583465794       16.6069030021
  C        -1.9491862375       13.8890293649       17.7050426850
  C        -2.3373469730       13.9108113302       15.2298121700
  C        -2.6572346590       13.7072935455       19.0223053914
  H        -1.2958409954       13.0996324083       17.5370520477
  H        -1.3753093835       14.8753350705       17.7815884799
  H        -1.2897288332       14.1721996303       15.2001440289
  H        -2.4470486459       12.8617291824       14.9169264141
  H        -2.8702132379       14.5507939994       14.4297608206
  C        -1.6447648138       13.5524000783       20.1478505236
  H        -3.4251860002       12.9035105352       19.0480995001
  H        -3.1633006803       14.6681692496       19.1435283849
  C        -2.2252291527       13.4888924744       21.5939320060
  H        -1.0303664001       12.7047275153       19.9987883756
  H        -0.8631508672       14.3320279932       20.0566012114
  C        -1.1197739011       12.9510844088       22.5364383762
  H        -3.0242160407       12.7456139642       21.6167071475
  H        -2.4332801817       14.4808459984       21.9699145853
  C         0.0505558600       13.8757445455       22.8974775291
  H        -1.6410003875       12.6709201221       23.4603198592
  H        -0.7893386881       11.9772711293       22.2492163027
  C         1.3295490083       13.2614171958       23.4190486430
  H         0.2876180348       14.5104629753       22.0885505726
  H        -0.3310150070       14.5972765968       23.6497392228
  C         1.6259452158       11.9336575031       22.6767865046
  C         0.9031557382       12.5727304468       24.6654614591
  C         2.5262838951       14.1945883679       23.4275119909
  C         1.4564814980       10.8592134169       23.4968508855
  C         2.1011679647       11.5391092506       21.4067107028
  C         0.9722424257       11.2364419788       24.7687752958
  C         0.4498869450       13.1784012718       25.8373868362
  H         2.7683749532       14.3674745465       22.3359636176
  H         2.2503329514       15.1601620361       23.7923297734
  C         3.7230984353       13.5297081165       24.0815549008
  S         2.0164052284        9.3504733327       22.7971737192
  C         2.3539517225       10.2087447409       21.3249075881
  H         2.0874791121       12.2704191474       20.6632129325
  C         0.5605550810       10.6409003824       25.9175610323
  H         0.4239092483       14.2842515358       25.8210019535
  C         0.1083374889       12.5682909492       26.9967853977
  H         4.0616104225       12.6652151826       23.4975922037
  H         3.5661157613       12.9902749518       25.0032295838
  C         4.8133671037       14.4883565532       24.4667960795
  C         2.8277182063        9.5105020000       20.1232065406
  C         0.0848632971       11.2063578060       27.1166606543
  H         0.5645698167        9.5932805757       25.9098748016
  C        -0.2690530810       12.9768955570       28.2393366185
  H         5.4269871147       14.1974139256       25.3029572441
  H         4.2433847932       15.3260601965       24.9890797943
  C         5.7604634882       14.9282794983       23.3576941247
  C         2.6383661322        8.1882678903       19.8088135577
  C         3.3463447660       10.4039971939       19.0797383592
  C        -0.3231392821       10.5247821133       28.4187535093
  C        -0.4747553848       11.9294649894       29.0990500262
  S        -0.3966423013       14.5339050911       28.9629548218
  H         6.4275692157       15.6557510602       23.8255120263
  H         5.1708482882       15.4377113517       22.6239698362
  C         6.6938175225       13.8876708661       22.6500258045
  N         2.2341429677        7.1926962582       20.6471257341
  C         3.0428254955        7.6679940112       18.5625915968
  C         3.5447481212        9.9579123556       17.7972224047
  H         3.6215678584       11.4239292430       19.3530477159
  C         0.7810577648        9.6596842306       29.0401837349
  C        -1.6591618616        9.7190794908       28.2317354682
  C        -0.8968487726       12.3694594889       30.3994818007
  C        -0.9524923513       13.7448652519       30.4445890871
  H         7.7184534600       14.3471213844       22.3935394852
  H         6.8730416248       13.0545730385       23.3394512578
  C         6.0679947687       13.3021503267       21.3427038813
  S         2.4205854610        5.7780237302       19.8699804114
  N         2.8116536321        6.3283597909       18.3849609225
  C         3.2780981817        8.5168485284       17.4506868022
  H         3.8318524697       10.6178250902       17.0158020887
  H         1.1758370442        8.8486624876       28.3463311913
  H         0.4710170789        9.0322841942       29.8978624909
  C         2.0156227631       10.5517139739       29.4667328638
  H        -1.5210823360        8.8575427871       27.6592241076
  H        -2.1017393075        9.4763859714       29.1952814568
  C        -2.7331976411       10.5759147165       27.5473887726
  H        -1.1290847693       11.6560705576       31.1636166380
  C        -1.3263267851       14.5479165647       31.6677631965
  H         4.9825938955       13.5057314004       21.1479940188
  H         6.0893875820       12.1834028384       21.3707661789
  C         6.8958295523       13.6678964282       20.1355504882
  C         3.5202373219        7.8429594285       16.1802934580
  H         2.3949975718       11.2338804681       28.6754380884
  H         1.7803796072       11.1042381211       30.3272182229
  C         3.1143591082        9.5593583658       29.9166012982
  H        -2.4907798775       10.9518948774       26.5259513035
  H        -2.8907103123       11.4577808907       28.2499385203
  C        -4.1368170713        9.8961259792       27.5046376957
  C        -1.3889248647       15.9461524254       31.8350863763
  C        -1.6393974063       13.8146607165       32.8924054219
  H         7.2006823108       14.6700616457       20.2773023475
  H         7.8000386910       12.9194061860       20.1567576255
  C         6.1902346879       13.3450456229       18.8327337217
  H         3.3157883192        6.8040227315       16.1241684605
  C         3.8407672940        8.3136926434       14.9236319238
  H         3.4017864263        8.8815056336       29.0817889663
  H         2.7352496155        8.7967887609       30.5565624846
  C         4.3910606475       10.1578527315       30.5584488866
  H        -3.9408036780        8.9489006956       27.1118241534
  H        -4.5565257310        9.6433144182       28.4772435435
  C        -5.1807256249       10.7316350093       26.7171143180
  N        -1.2528766133       16.8177719024       30.7661099101
  C        -1.8288591413       16.5560071991       32.9922269164
  C        -2.0716064930       14.3804480658       34.0507166211
  H        -1.5835571813       12.7876694464       32.8676023925
  H         6.8470266254       12.9895935422       18.0636714570
  H         5.4014633857       12.5839984447       18.8132787529
  H         5.6982653854       14.2430513998       18.4368159497
  S         4.1019119175        9.9253426590       14.4254567237
  C         3.9107033498        7.3249224765       13.8233899967
  H         4.4408008242       11.1714290855       30.1865414485
  H         4.2244834294       10.3359027414       31.6132834287
  C         5.7101109529        9.4611620176       30.4498575193
  H        -4.7534996723       11.3408848792       25.9388157019
  H        -5.5466370265       11.4137473692       27.4473960518
  C        -6.3240058828        9.8824956617       26.1731802426
  S        -1.3621623483       18.3209110462       31.3211691697
  N        -1.7278222294       17.9799277296       32.8676517869
  C        -2.1597901724       15.8442843362       34.1441997542
  H        -2.3630764984       13.7394022136       34.8853098389
  C         4.2434609348        9.3628353696       12.7460808487
  N         4.3200111461        7.9917947410       12.6640318796
  O         3.7052208896        6.1300959785       13.9482797473
  H         6.5516865609       10.0148795404       30.8153013850
  H         5.9950717780        9.4454148382       29.4369905896
  C         5.6386132236        8.0575190034       31.0456035635
  H        -6.1153604434        9.0209463590       25.5192666151
  H        -6.8529134895        9.4735085142       27.0848900742
  C        -7.2851571332       10.8073961051       25.3549471161
  C        -2.4889771290       16.6312791244       35.2901528669
  S         4.5511786788       10.2575396457       11.2938553674
  C         4.4836943269        7.1883349403       11.4786912657
  H         6.0058503411        8.0571255045       32.0443893490
  H         4.5733934466        7.8642988733       31.2427024657
  C         6.3242327985        6.9310862266       30.1913408561
  H        -6.6968169882       11.1254754019       24.4597648199
  H        -7.4806379133       11.7614595152       25.8175854553
  C        -8.5885521805       10.1944099077       25.0169062882
  H        -2.5410226207       17.7231017123       35.1820824287
  C        -2.9830836362       16.3029922358       36.5247025539
  H         5.2185405975        7.7010653296       10.8611660300
  H         4.7518510760        6.1544957227       11.7449823938
  C         3.1597431670        7.1735974318       10.7326065813
  H         7.1383662436        7.3609916755       29.6123021943
  H         5.6201202081        6.4604814284       29.4920242152
  C         6.9383693187        5.8316699637       31.0742456332
  H        -9.0564458623       10.7699066110       24.1632462190
  H        -8.3743569951        9.0998791070       24.7241138626
  C        -9.4682359706       10.0572631256       26.2343519336
  S        -3.6159464037       14.7086342142       37.0443391809
  C        -3.1417146173       17.3577205076       37.5689623978
  H         3.1278550996        8.0981459097       10.1407435836
  H         3.0522481225        6.4162406396        9.9085480774
  H         2.3252039639        7.0680853914       11.4610388027
  H         7.5628811115        6.2444063233       31.8246015815
  H         7.6915359928        5.2354376240       30.5498222635
  H         6.2190238429        5.2697525236       31.5223128642
  H        -8.9029165460        9.5631810140       26.9526888187
  H       -10.2520601187        9.4157694399       26.0132806737
  H        -9.6582424614       11.0084648830       26.5862296672
  C        -3.7519054636       15.4449456319       38.6216484796
  N        -3.6999527535       16.7839295204       38.6671014513
  O        -2.8419430516       18.5066198847       37.4450964156
  S        -4.2144139745       14.6045617454       40.0817053409
  C        -3.9324051420       17.5611897311       39.8427225960
  H        -4.4089552057       18.5526992282       39.6297383767
  H        -4.6326455251       17.0870618639       40.5172838349
  C        -2.6562703213       18.0193892458       40.5571225726
  H        -2.0798706636       17.1169818531       40.8090826378
  H        -2.1165052817       18.8266887049       40.0674775053
  H        -2.8486836409       18.5706954911       41.4897742997
  H         7.3743201039       11.6040895646        3.9746847044
  C         7.8852011820       10.6423473212        4.0053448824
  H         7.1700944310        9.8374788909        4.0555283071
  C         8.8815087137       10.6329248725        5.1983757570
  C         8.7011804990       10.4477483974        2.6954990432
  C         8.1871051599       10.7680652186        6.5198147174
  H         9.4043140502        9.7352077357        5.2914092060
  H         9.4873091710       11.4908826316        5.1453324243
  H         8.0210557548       10.5789571310        1.8853062198
  H         9.1086975902        9.4549017744        2.5019145066
  H         9.4388425502       11.2194261912        2.5564651758
  C         7.3423014869        9.5037478914        6.9076288749
  H         8.9232461800       11.0018595838        7.3033665836
  H         7.4470520185       11.6356085381        6.4315366880
  C         6.4016533434        9.6788347029        8.1532059351
  H         8.0705821847        8.7097700258        7.2373606330
  H         6.6458763042        9.2610446993        6.0936611990
  C         5.1954204439       10.6577220141        7.9791923307
  H         7.0628471537       10.2548117007        8.8683241479
  H         6.0219356844        8.7622511700        8.5869542543
  C         3.9805971552        9.9031090387        7.4336262387
  H         5.0045502067       11.2349142118        8.9546648238
  H         5.4694175598       11.3323720042        7.1738829062
  C         2.8188132479       10.8304815206        7.2074137118
  H         3.7760417189        9.1548922029        8.2207153160
  H         4.2103967991        9.3078755126        6.5937060594
  C         3.1789033768       12.2106095202        6.5488773997
  C         2.5219061450       11.6414500737        8.4798212860
  C         1.5730942906       10.2450063051        6.3297420742
  C         3.0588914930       13.3168581481        7.3789981195
  C         3.5733267206       12.5733287216        5.2257367375
  C         2.6616269435       12.9715992060        8.6517461526
  C         1.9837157402       11.0570033415        9.6661327048
  H         1.9911663634        9.8292197706        5.3205876014
  H         1.2681087819        9.3759156609        6.8349522334
  C         0.4233940438       11.2397246486        6.1061524124
  S         3.4478358737       14.8208819853        6.5841017565
  C         3.6785732455       13.9627918945        5.0344732607
  H         3.7641960885       11.8351832211        4.4655622559
  C         2.4352921867       13.5426818233        9.8681343404
  H         1.8757027257       10.0056845925        9.6157178860
  C         1.6456911683       11.6482819793       10.8099550890
  H         0.8538772526       12.0787520250        5.6121171140
  H         0.0937035099       11.6415427828        7.0992952170
  C        -0.6604303542       10.6003472300        5.2384880766
  C         4.1037855616       14.6592190350        3.7900011805
  C         1.8464971930       12.9685013796       10.9621368025
  H         2.4499202450       14.6237655808        9.9016234390
  C         1.1476829185       11.2449444339       11.9866150131
  H        -1.5450194644       11.2265603965        5.4225576631
  H        -0.9342533272        9.5733630332        5.4719779765
  C        -0.2224631595       10.4571711014        3.7269703268
  C         4.1892342518       16.0587982525        3.6384942667
  C         4.5887916472       13.8416094141        2.6538774132
  C         1.4228554673       13.6703828625       12.1949472446
  C         1.0830598404       12.2975863455       12.8717835798
  S         1.0464843403        9.7217849554       12.7676656203
  H         0.5544185388        9.6600656706        3.6637354296
  H         0.2352402725       11.4356379278        3.3632695192
  C        -1.4271118054       10.2287882275        2.8395085319
  N         4.0092118275       16.9945569794        4.6489673112
  C         4.5030739810       16.6825303079        2.4385379296
  C         4.9573343858       14.4660940199        1.4768817551
  H         4.7844671354       12.8305199316        2.8220618972
  C         0.2139004217       14.5431042920       11.9762579522
  C         2.6895808292       14.3814251572       12.7846012459
  C         0.7631941648       11.8577453805       14.2045645577
  C         0.7190766148       10.4711648640       14.2260900699
  H        -2.3625009855        9.8165289351        3.4042747887
  H        -1.7070741216       11.2531068376        2.3715382084
  C        -1.1114935317        9.1781688642        1.7896779437
  S         4.0381828454       18.5129750554        4.0256968515
  N         4.4012234312       18.0677420455        2.4968962660
  C         4.8255075037       15.9375344843        1.2865388984
  H         5.2862730498       13.8290083807        0.7086886555
  H         0.4820003735       15.2150356128       11.1503268436
  H        -0.1111118602       15.2170286456       12.7539908014
  C        -1.0190849677       13.6759245686       11.6064340996
  H         2.9781105663       15.2400598801       12.1004375890
  H         2.3658787306       14.9359390164       13.6465752187
  C         3.8333517391       13.4190795529       13.2202484436
  H         0.6937461258       12.6273298653       14.8952488114
  C         0.3621108144        9.6409741280       15.4510367172
  H        -2.1039533641        8.8444446183        1.4293814329
  H        -0.5849331676        8.3135285188        2.1148604680
  C        -0.3102450299        9.7455101123        0.5351664784
  C         5.1285024093       16.6540817349        0.0891522471
  H        -0.6773182237       13.0458260921       10.8161520455
  H        -1.4762472012       12.9234324224       12.2942835404
  C        -2.1903643423       14.4147183387       11.0450720725
  H         4.2315300938       12.7939251900       12.4279567351
  H         3.5069505558       12.5951646117       13.8209476252
  C         4.9032980916       14.0108668919       14.0652448005
  C         0.3289294580        8.2537551538       15.5826017995
  C         0.0398201979       10.4006493122       16.6289366498
  H         0.5497526934       10.3414479534        0.8662775093
  H         0.1255842521        8.9508428137       -0.0916602551
  C        -1.1701749826       10.5026268794       -0.4830602891
  H         5.0863737553       17.6810383804        0.1166107446
  C         5.5067681067       16.3734886418       -1.1854612433
  H        -1.6546757355       14.8925636852       10.2059324102
  H        -2.6280665547       15.2177295394       11.6693069161
  C        -3.3453304427       13.4827553606       10.4508459966
  H         4.3993121229       14.4931103643       14.9028992855
  H         5.4222472279       13.2220057732       14.6142599023
  C         5.8626256158       14.9129607043       13.2916446926
  N         0.6678409332        7.3607233411       14.5661758117
  C        -0.0066670323        7.6267307701       16.7694063379
  C        -0.2036182262        9.8268675449       17.8845319397
  H         0.0158336496       11.4471362766       16.5688684494
  H        -1.4043279266        9.8079806143       -1.2383811506
  H        -0.6136534470       11.2929542361       -1.0280531835
  H        -2.1089755227       10.8919265121        0.0124659557
  S         5.5722361095       14.7612189672       -1.8258548503
  C         5.4599523348       17.4797031739       -2.1380536996
  H        -2.9547933041       12.9706069661        9.6053528096
  H        -3.4958922720       12.6296281127       11.0727959193
  C        -4.7175467117       14.1139547115       10.1709898297
  H         5.3765625280       15.1287445753       12.3272733269
  H         6.7656850620       14.4049276898       13.0390379818
  C         6.1964604627       16.3485843440       13.8162560586
  S         0.4279571280        5.8128266162       15.1237327323
  N        -0.0302702037        6.2252920249       16.6660136700
  C        -0.2213807897        8.3415189118       17.9941157707
  H        -0.4416306333       10.5226110538       18.6652897970
  C         5.6942832052       15.5751185771       -3.4191834618
  N         5.6083737118       16.9352503469       -3.3541791295
  O         5.3077439450       18.6933668363       -1.9032838315
  H        -5.2127853145       14.6381293687       11.0326307136
  H        -4.5953972993       14.9072916799        9.3922927917
  C        -5.7018944710       13.1049852354        9.5210603394
  H         6.1028325068       17.0678366767       13.0944354629
  H         5.4129456625       16.5728899605       14.5831324567
  C         7.6672526400       16.2877342832       14.3172719046
  C        -0.5767013942        7.5905571415       19.1571838104
  S         5.6818545192       14.6554550677       -4.9149553047
  C         5.6570432230       17.7323132310       -4.5535080816
  H        -5.2876286049       12.7978633826        8.5805094164
  H        -5.7772649233       12.1402746936       10.0404071756
  C        -7.0459510924       13.5881905806        9.2870221602
  H         8.4124474197       16.1220175753       13.5232613762
  H         7.7782497276       15.5179525348       15.0673091464
  C         7.9404633813       17.6182504791       14.9313061531
  H        -0.7902244280        6.5594926766       18.8614113750
  C        -0.9919673594        7.9234458446       20.3951637832
  H         6.4841487314       17.4911993866       -5.2164427757
  H         5.9545540827       18.7120158824       -4.2239264225
  C         4.3269627743       17.6422118003       -5.3629145870
  H        -7.3570616251       13.1721608745        8.3566302445
  H        -6.9236112296       14.6799192885        9.2090739387
  C        -7.9356062377       13.2901397400       10.6122825526
  H         8.9747499550       17.6847290833       15.3306478176
  H         7.7883924197       18.2935417878       14.1141615838
  C         6.9615955770       18.0077441225       16.0370099021
  S        -1.3858061990        9.4998202901       21.0259225453
  C        -1.2482886352        6.7981879521       21.3157073773
  H         3.4496065433       18.1352870238       -5.0442834001
  H         3.9866492283       16.6464695651       -5.4669045188
  H         4.4464485816       17.9842130759       -6.3877068083
  H        -8.3558277398       12.3390849796       10.6385559199
  H        -7.3715950381       13.2930041421       11.4995622758
  H        -8.7383540940       13.9967721243       10.7615941725
  H         7.4307952956       18.4221884409       16.9167828467
  H         6.1845219269       18.6676388302       15.5417897806
  H         6.5560172107       17.0604889513       16.4531685631
  C        -1.9130480653        8.5726530453       22.4837325506
  N        -1.7436800054        7.2104125405       22.4788308311
  O        -1.1606122034        5.5949920248       21.0107279268
  S        -2.3325958492        9.2886915431       23.9557105787
  C        -1.8403346379        6.3448001477       23.6347914913
  H        -2.2681204749        5.4194491526       23.3065927811
  H        -2.4677791006        6.7720763642       24.4432497110
  C        -0.4961734597        6.0981118866       24.2894935726
  H         0.2876458103        6.4961090234       23.7192571869
  H        -0.3326486874        5.0161339304       24.4987118246
  H        -0.4245821706        6.6952198917       25.1557044976
