352
i =
  H        -1.2443097271       14.3263418246       15.8625174376
  C        -2.0095249404       14.0287018813       16.6079682866
  H        -2.5691416015       14.9852555321       16.8593994120
  C        -1.3465668052       13.4759043577       17.8236132097
  C        -2.9249552715       13.0271181006       16.0048589332
  C        -1.9985732385       13.8983402124       19.1275739461
  H        -1.4295041509       12.4272500675       17.7002903129
  H        -0.2863400678       13.7672023636       17.8282441001
  H        -3.5771373384       12.4832137782       16.6947186061
  H        -3.6014843208       13.5339065341       15.3911888897
  H        -2.3067843834       12.2692703998       15.4961640677
  C        -2.0466271567       12.7160565463       20.0392491189
  H        -2.9961395836       14.2774783871       18.8824868954
  H        -1.3463939942       14.7134829747       19.4918681024
  C        -2.4829257302       13.0652961727       21.4442994271
  H        -2.7033293688       11.9121279518       19.5839948516
  H        -1.0750266001       12.2319441541       20.0626928721
  C        -1.3747080116       12.7007812828       22.4302945541
  H        -3.3349767970       12.4495731012       21.7616443593
  H        -2.8644375451       14.0628446388       21.5435905129
  C        -0.1609073291       13.6072096611       22.6122160484
  H        -1.7862020000       12.5854905659       23.4345859473
  H        -1.0398969513       11.6609603844       22.2344013641
  C         1.0507600500       12.9298942475       23.3141316675
  H         0.1554382633       13.9880611837       21.6104199696
  H        -0.3528498184       14.5883996624       23.0736059569
  C         1.4494162847       11.5635368915       22.7267696189
  C         0.7685378040       12.2152519503       24.6282230453
  C         2.2813257222       13.8564374903       23.6140191674
  C         1.3146771714       10.4658507986       23.5748500526
  C         1.9888306076       11.2098842059       21.4717645579
  C         0.8489725629       10.9124579895       24.7499416842
  C         0.2589868423       12.8656084045       25.7450227501
  H         2.4457116859       14.3684027114       22.6130541223
  H         2.1418222612       14.6198900346       24.3607791830
  C         3.5797694000       13.0470733016       24.0695715185
  S         1.7823012718        8.9463278202       22.7944648760
  C         2.1451406783        9.8404880301       21.3366805968
  H         2.1401360149       11.9758164549       20.7326324522
  C         0.4719192410       10.3039507372       25.9339102915
  H         0.1824048787       13.9264392339       25.6856766663
  C        -0.0363072314       12.3062367017       26.9674688549
  H         3.9037149203       12.3097822060       23.3330104301
  H         3.4380388638       12.5194018559       25.0323757608
  C         4.7904184004       13.9562047355       24.2959833255
  C         2.6069708429        9.1392898349       20.0768489002
  C         0.0898801659       10.9759050659       27.0970689466
  H         0.6036098538        9.2414527637       26.0428481225
  C        -0.3755872654       12.7094091775       28.2400327461
  H         5.5906886964       13.3585408927       24.7908962780
  H         4.5940036306       14.6427511169       25.1316275689
  C         5.3085644405       14.8285556840       23.1887364473
  C         2.5002098135        7.7619624504       19.8226531645
  C         3.1083657978        9.9244185173       18.9585441982
  C        -0.1849582531       10.3126895170       28.3465541356
  C        -0.4920019554       11.6173651810       29.0964218747
  S        -0.7880380679       14.1785673406       29.0349356206
  H         5.9020202252       15.6454805148       23.5590785841
  H         4.5521176550       15.2523004029       22.5660819160
  C         6.1425320159       14.0672522644       22.2284141519
  N         2.1569653862        6.8165451551       20.8007928798
  C         2.7625223691        7.1299424342       18.6078168067
  C         3.4464902744        9.3274217860       17.7190371324
  H         2.9640695784       11.0541063284       18.9644792115
  C         0.9442307345        9.4189430298       29.0460822373
  C        -1.4423564926        9.4642496250       28.3350267811
  C        -0.8450853237       11.9918962635       30.4219687132
  C        -1.0562524174       13.3277953232       30.5374677588
  H         7.2169071007       14.4094054360       22.3159019350
  H         6.1510823234       13.0324431817       22.4860912016
  C         5.6755536053       14.1871463477       20.7425379560
  S         2.2422392515        5.3600216807       20.1650948608
  N         2.5810546965        5.7255408235       18.6458445598
  C         3.1645794755        7.8660260919       17.4611025427
  H         3.7128448474       10.0546517517       16.9266069425
  H         1.2988945782        8.5798292759       28.4558434999
  H         0.3631164227        9.0308817955       29.8514526622
  C         2.1304992424       10.2647895618       29.6351793909
  H        -1.3538171646        8.4385978209       27.8457605137
  H        -1.6685815191        9.2873556276       29.3906889179
  C        -2.6083812585       10.2173289572       27.6820590586
  H        -0.8625671127       11.2201762169       31.1227267105
  C        -1.4455202714       14.1217664431       31.7817096075
  H         5.9126116155       15.1787340475       20.3691886714
  H         4.5920942778       13.9874828578       20.6712778853
  C         6.3709122091       13.2513896064       19.8583665900
  C         3.4165667053        7.2084306271       16.1757540927
  H         2.8326741155       10.5123319132       28.8387198097
  H         1.8452062130       11.2902425836       29.9073719951
  C         2.8445566830        9.4597247579       30.7706156290
  H        -2.3690224841       10.6272565869       26.6810938436
  H        -2.9477375550       11.1644821110       28.1404263995
  C        -3.9668112130        9.4943560440       27.5429735878
  C        -1.6218868786       15.5223758777       31.9010479482
  C        -1.6008580551       13.3734885659       33.1136686538
  H         6.3664805653       12.3335644079       20.3841485679
  H         5.8850231289       12.9475893856       18.9358307410
  C         7.8569315400       13.7208996275       19.6262068510
  H         3.3816167056        6.1674952267       16.4010905373
  C         3.6846952476        7.6869206892       14.9154157185
  H         2.8208740007        8.4599464100       30.5002373656
  H         2.3752988782        9.6968794595       31.6927607902
  C         4.2337489924       10.0750110605       30.9933801154
  H        -3.9374396150        8.7587356758       26.7722683632
  H        -4.1985094606        9.0398152481       28.4669400887
  C        -5.1481648558       10.3732141225       27.0856336051
  N        -1.3750805413       16.4156976708       30.8233907997
  C        -1.8905397064       16.2061284650       33.1005131698
  C        -1.8023468968       14.0290319032       34.3067379474
  H        -1.5054032914       12.2731973894       33.2057542316
  H         7.8333847792       14.7023375348       19.1708037489
  H         8.3189002750       13.9215929490       20.5306804082
  H         8.4544222329       13.0994379071       18.9840251620
  S         3.8543757010        9.3095599898       14.3229754572
  C         3.7459448095        6.6479155100       13.8431173265
  H         4.3488645201       10.9717637526       30.3136836677
  H         4.1228277080       10.3200624117       32.0205995445
  C         5.4031025747        9.0819704253       30.7688121015
  H        -4.8806022733       11.3283670831       26.7223298889
  H        -5.5957348316       10.6463600721       28.0116071379
  C        -6.1358748791        9.7172784333       26.1236058793
  S        -1.3617487267       17.9243368663       31.5074553962
  N        -1.7351981135       17.5754886521       33.0626620228
  C        -2.1497409218       15.4933702265       34.2861326251
  H        -1.7334572558       13.4824215896       35.2233247918
  C         4.0893859178        8.5663033853       12.7174524085
  N         4.0861204688        7.2188669026       12.6820285463
  O         3.5903015971        5.4908545390       14.0053874992
  H         6.2641071981        9.6854491139       30.5745761555
  H         5.1686467134        8.3794776509       29.9330317379
  C         5.5341206325        8.3094656343       32.0807184501
  H        -5.5300726295        9.3459166581       25.2642435969
  H        -6.4768279458        8.7940607807       26.5776538569
  C        -7.2357592445       10.7054562194       25.5787839353
  C        -2.3139807065       16.2164696432       35.4695816908
  S         4.2958819050        9.4797044866       11.1627430267
  C         3.9703686356        6.3960381350       11.4717283436
  H         6.0140042327        8.9566604799       32.8735987050
  H         4.5929970544        8.2011974571       32.5570497306
  C         6.2042675724        6.9511896180       31.7838800905
  H        -6.9021161763       10.9826616391       24.6077885628
  H        -7.5298755875       11.6343881924       26.1711540225
  C        -8.5007714315        9.8760231984       25.4372280801
  H        -2.0570342916       17.2428689642       35.4653714455
  C        -2.8852468842       15.9694504664       36.7263629638
  H         4.7224088540        6.7202855587       10.7532786980
  H         4.3050637039        5.3713487074       11.5942645033
  C         2.5493246046        6.5499867551       10.9953412251
  H         6.7755768533        6.5399603417       32.5885911801
  H         6.9085479376        7.0477435862       30.9818609903
  C         5.1194311489        6.0136860890       31.3777376442
  H        -9.2104003906       10.2902653166       24.7419538439
  H        -8.2611000652        8.8853171082       25.0400897149
  C        -9.1534681259        9.6648603117       26.7717854247
  S        -3.5974509305       14.4794172892       37.2536941506
  C        -3.0406798364       17.0151760238       37.7768273563
  H         2.2373977276        5.5787449384       10.5741621688
  H         1.7993566364        6.8070115681       11.7406534038
  H         2.5066112182        7.2730080756       10.2215402764
  H         5.3681088369        5.0736004047       31.9070703191
  H         5.0156901636        5.7602928430       30.3544502449
  H         4.1748543234        6.3283609371       31.6579790001
  H        -9.6055699747       10.6645367870       26.9974670602
  H        -8.4409266217        9.3840335158       27.5469592062
  H        -9.9699399106        8.9843930177       26.7844038069
  C        -3.9451577326       15.2083480841       38.7690546860
  N        -3.7401161763       16.5252476342       38.8390973051
  O        -2.6742746979       18.2337834714       37.6141209891
  S        -4.4402391698       14.3661139802       40.1984902333
  C        -3.9656633278       17.3970862281       39.9903345922
  H        -4.1282582545       18.4130818302       39.6500984194
  H        -4.8391321396       17.0572030604       40.5899255583
  C        -2.7129428560       17.4044674710       40.8703841904
  H        -1.8356057698       17.4657284140       40.1801127625
  H        -2.7137454835       18.3362034335       41.5236342215
  H        -2.5289836453       16.5174949225       41.4634864598
  H         7.1925083477       10.5757591841        2.5845801391
  C         8.0767030365       10.0436340825        2.8157211813
  H         7.8701616594        8.9932699109        2.7653720859
  C         8.5873648226       10.4060489587        4.2106879411
  C         9.1508751593       10.2839355860        1.7567778899
  C         7.5458110013       10.4184178389        5.3357414667
  H         9.5191805650        9.8931172050        4.3962542241
  H         8.8886013577       11.4084553422        4.2515008147
  H         9.9001843836       10.9765306405        2.1605246789
  H         8.7376177172       10.6382356389        0.8160310555
  H         9.7795129708        9.4488790283        1.5284922690
  C         7.3857104063        9.0637541552        6.0519817191
  H         7.7515776646       11.2545289144        6.0315247856
  H         6.5812196456       10.7225899784        4.9458597824
  C         6.3679799873        9.0591732446        7.2018380826
  H         8.3838183276        8.7610138165        6.4343959588
  H         7.0112750909        8.2470314459        5.3640653772
  C         5.1990373278       10.0723910057        7.2180071199
  H         6.9598644363        9.2449949435        8.1141164296
  H         5.9692307278        8.0872254332        7.1923179893
  C         3.9256790089        9.4668147690        6.7609639224
  H         4.9591140523       10.2160178056        8.2468622435
  H         5.3990287520       11.0458484372        6.8564465893
  C         2.7709993913       10.4922946839        6.6630782130
  H         3.5572194376        8.6660461630        7.4690927071
  H         3.9631748764        8.9832068446        5.8211467909
  C         3.0795349986       11.8514367761        6.0587333121
  C         2.4448582981       11.1409541086        7.9529648128
  C         1.5551398180        9.7906658706        5.9926367127
  C         3.0832262310       12.9360944811        6.9495903322
  C         3.4409598384       12.2599159657        4.7929208897
  C         2.6374883597       12.4868746607        8.1921256662
  C         1.9351218079       10.5261648570        9.0616981847
  H         1.9475925441        9.5782668962        5.0365741630
  H         1.3739926852        8.8456775030        6.4297041399
  C         0.2391248868       10.5905527577        6.1083556656
  S         3.5201125207       14.4408704668        6.2299318598
  C         3.7574507300       13.5681759306        4.6952325060
  H         3.4695895510       11.4583669898        4.0304780305
  C         2.3305611910       13.0936443214        9.3655539677
  H         1.7460217385        9.4877402820        8.8399379589
  C         1.6234243541       11.1079639553       10.2521552563
  H         0.5769564806       11.6102272820        5.9968484668
  H        -0.0786083290       10.4480156917        7.1216894055
  C        -0.8384209076       10.1978519983        5.0101602293
  C         4.0687572476       14.2476145451        3.4362770930
  C         1.7787309860       12.4238074076       10.4705911060
  H         2.4713591604       14.1131794315        9.4567341942
  C         1.1247378791       10.6364037075       11.5020507034
  H        -1.7536765876       10.8337477124        5.2140158875
  H        -1.1004377534        9.1866518773        5.2101619061
  C        -0.4120967049       10.5108140195        3.5583691734
  C         4.0622397663       15.6238849329        3.2046780453
  C         4.5624955301       13.3664471979        2.3775595672
  C         1.3959426401       13.0378078576       11.7025995026
  C         1.0536265648       11.7063500364       12.3539360929
  S         0.6670492136        9.1453304487       12.2170239682
  H         0.6638862331       10.3135004931        3.3353368337
  H        -0.4605588884       11.5948140467        3.5992200292
  C        -1.4242011497       10.0473493661        2.4489253520
  N         3.8947128374       16.6314879869        4.1825449790
  C         4.2961527208       16.2020808414        1.9775323644
  C         4.8002649146       13.9303965634        1.1253561916
  H         4.8220076997       12.3295218079        2.5089794136
  C         0.0959979732       13.8500193042       11.5324503003
  C         2.5417018182       13.9504486967       12.3126382313
  C         0.6144681697       11.3146020089       13.6208634984
  C         0.3166080923        9.9603137484       13.6990109222
  H        -1.7904663489        9.0800426538        2.6997492269
  H        -2.2955405609       10.7950345536        2.4469272293
  C        -0.8205287050       10.0267273208        1.0560879379
  S         3.7276020635       18.0539766033        3.4598296659
  N         4.1553518251       17.5962482862        1.9403412222
  C         4.6898900915       15.3982090206        0.8473957343
  H         5.1711245035       13.1674220665        0.3919593496
  H         0.4135869819       14.5632783226       10.8033181396
  H        -0.0802809496       14.3969677188       12.5011722998
  C        -1.2003461530       13.1816272549       11.1110337467
  H         2.8709327396       14.6007856378       11.5133079910
  H         2.0424443280       14.5704649727       13.1080723009
  C         3.6803520336       13.0252160969       12.8323339765
  H         0.5954871676       12.0265929095       14.3749886109
  C         0.1015270154        9.1585975969       14.9664081601
  H        -0.1246165388        9.2143950468        0.9222606310
  H        -0.1808204812       10.9668036595        0.8593178092
  C        -1.9919777465       10.0738583554        0.0691594724
  C         4.9759141111       16.0409099640       -0.3231226672
  H        -1.1591194442       12.6226515945       10.1633687872
  H        -1.6490550513       12.4687283003       11.8059342908
  C        -2.4407152244       14.1923448347       10.9440076254
  H         4.0093469169       12.3868118615       11.9402546697
  H         3.4556490488       12.2690616673       13.5475877317
  C         4.8073179042       13.9145562859       13.4073405136
  C         0.1686254059        7.7661935304       15.1729232095
  C         0.1447927731        9.8743246700       16.2476159903
  H        -2.4202903578        9.0394015606        0.0933765573
  H        -2.7146210542       10.7248692054        0.4218577869
  C        -1.5156605275       10.5649808939       -1.3481448773
  H         5.0310787229       17.1150947284       -0.2805831119
  C         5.3861361610       15.5572101219       -1.5975150520
  H        -2.2289058774       14.8054629417       10.0925166186
  H        -2.5705144312       14.8988489341       11.7373755670
  C        -3.7087080721       13.4734321722       10.6997581107
  H         5.0304810957       14.5782762698       12.5079282791
  H         4.4433429853       14.6223372660       14.1319995860
  C         6.0506709768       13.1231572220       13.7829566230
  N         0.3775913801        6.8622809279       14.1307793288
  C        -0.2005237210        7.1855594768       16.3996620897
  C        -0.1306228282        9.3288650772       17.4680735076
  H         0.1978197297       10.9567852587       16.2431323599
  H        -0.5878825720       10.0197465047       -1.6470765098
  H        -1.3119692682       11.6542748997       -1.3956289897
  H        -2.3114989119       10.2380451487       -1.9830516094
  S         5.6033518057       13.9136906787       -2.0758525334
  C         5.6967943946       16.4952877253       -2.6803897171
  H        -3.4379796203       12.4770857678       10.4340432106
  H        -4.2474490140       13.3925368086       11.6175339587
  C        -4.7810897872       14.0569593439        9.7982550870
  H         6.6372881543       12.7534547802       12.9616533791
  H         5.9526718137       12.2647813336       14.3576923284
  C         6.9706913647       13.9942029764       14.6570893724
  S         0.1974009984        5.3598402412       14.7154882009
  N        -0.3051390878        5.8358997802       16.2300980676
  C        -0.4128037060        7.8462688247       17.6143679704
  H        -0.1623735449        9.9121964889       18.3593656998
  C         5.8806767502       14.5271624189       -3.7015491549
  N         5.9263823585       15.8504390432       -3.8092661093
  O         5.5989342042       17.6906790985       -2.5546010886
  H        -5.1496135255       14.9721526798       10.2553106939
  H        -4.2020708261       14.4055056438        8.9205862384
  C        -5.8769142279       13.0650188289        9.4298935749
  H         6.4761754962       14.1294955230       15.6498563922
  H         7.8664776076       13.3826146427       14.8982761982
  C         7.3368024116       15.3484930487       14.0319807022
  C        -0.6710778123        7.1928123724       18.8041794449
  S         6.1867797181       13.6537495790       -5.2808192337
  C         6.0615380945       16.6798928475       -5.0797387662
  H        -5.7385744996       12.5328089014        8.4717252327
  H        -5.9094565177       12.2535570074       10.1040239265
  C        -7.2483177328       13.7430439299        9.4923125947
  H         6.4720605362       16.0455623990       13.8369184369
  H         7.6827050921       15.2128364682       12.9950207924
  C         8.3742216700       16.1059618731       14.9242058359
  H        -0.6166371494        6.1367808569       18.7051779311
  C        -1.0984182606        7.5011039568       20.0658845742
  H         6.7605954251       16.2496783484       -5.7411455724
  H         6.4582946893       17.6095653932       -4.6997123046
  C         4.7759356844       16.7604964794       -5.7929839237
  H        -7.9672723657       13.3354616697        8.7917252619
  H        -7.1179778863       14.8196894870        9.2334095466
  C        -7.8716062041       13.4527816708       10.8466113864
  H         8.2734209575       15.8028777080       15.9615390866
  H         9.3369509092       15.8074801285       14.6714222318
  C         8.4075962865       17.6800315452       14.7905896602
  S        -1.5380703400        9.0562286456       20.5591257073
  C        -1.2653460184        6.4432494766       21.0666480661
  H         3.9892922553       17.0921528051       -5.1246108668
  H         4.4327471828       15.7455974338       -6.1916558073
  H         4.8020343521       17.5449706610       -6.5856737615
  H        -8.1680638111       12.3774215909       11.0048093798
  H        -7.1331925232       13.7440532059       11.5894335591
  H        -8.6525422537       14.0477991402       11.0423659444
  H         7.6510021571       18.2600689230       15.2027915911
  H         9.3553274078       17.9067254546       15.1488112620
  H         8.5095497995       17.9506420788       13.7252898784
  C        -1.8648211998        8.3680142957       22.1431810863
  N        -1.6105222773        7.0571820512       22.1888089305
  O        -1.0282201718        5.2323509696       20.8467830427
  S        -2.2191202796        9.3018369444       23.6044050624
  C        -1.8255356437        6.3072387992       23.4005704387
  H        -1.9754617146        5.2273821317       23.3263629417
  H        -2.7518202130        6.6362440710       23.8972836832
  C        -0.6705332249        6.3957374057       24.3932454224
  H        -0.9971625137        5.7787825710       25.2484087022
  H        -0.6052216795        7.4303878438       24.8138178550
  H         0.2415070042        5.9387412627       23.9784422263
