352
i =
  H        -3.8416410358       14.3210161928       16.3707330109
  C        -3.3820537852       13.2566530406       16.3209356951
  H        -4.2094454360       12.5718003050       16.4569834278
  C        -2.2874722028       13.0627008031       17.3952154938
  C        -2.7025773851       13.0788062813       14.9775009816
  C        -2.8134754025       13.2635813645       18.7587446729
  H        -1.8846637858       12.0198011287       17.3350438163
  H        -1.4012188912       13.7329726548       17.3195539960
  H        -1.6957075035       13.4633013632       15.0113526730
  H        -2.6261768451       12.0728088458       14.6822809524
  H        -3.2022660181       13.5724540744       14.1519583853
  C        -1.7239970647       13.2570372877       19.8950019567
  H        -3.5375273726       12.4096374618       18.8963662326
  H        -3.4142686854       14.1939853484       18.7768904127
  C        -2.2645942189       13.2462540972       21.3486021549
  H        -1.0682729762       12.3865430876       19.7666534718
  H        -1.2474180816       14.2278538401       19.7049875257
  C        -1.2679444940       12.6859604618       22.3468759899
  H        -3.0427119505       12.5430579702       21.3164592565
  H        -2.6516711902       14.2040300503       21.7585707806
  C        -0.1112373932       13.6687013450       22.4936283533
  H        -1.7352502967       12.4793940739       23.2958303274
  H        -0.9067798052       11.7436876892       21.9610788623
  C         1.1468275879       12.9909027637       23.1936175046
  H         0.2108981739       14.1794656375       21.5833878609
  H        -0.4032509215       14.4937198997       23.1528759541
  C         1.5229124955       11.6814661478       22.5037568290
  C         0.7315989703       12.3509928509       24.4871700219
  C         2.2390531670       13.9893467996       23.4147497323
  C         1.2464110162       10.6199791884       23.3669110214
  C         2.0242022651       11.2547159178       21.2391721986
  C         0.8321550146       11.0338713858       24.5865950586
  C         0.3583101921       12.9613063547       25.6682473672
  H         2.3931804335       14.4318413610       22.5157855871
  H         1.9696525726       14.8454049723       24.0927314193
  C         3.5747094693       13.2530359389       23.8700509086
  S         1.4991268289        9.1019127097       22.6382693737
  C         1.9419596833        9.9189571192       21.1614098011
  H         2.1980372156       11.9911935421       20.5059080850
  C         0.5402408124       10.3783891645       25.6928610744
  H         0.3123028428       14.0185614805       25.7595409260
  C        -0.1081325360       12.3201228613       26.7528015626
  H         3.8211409978       12.6266579977       23.0674806402
  H         3.4527040051       12.6067540724       24.6914511662
  C         4.7331684891       14.2703659459       23.8838593271
  C         2.1730668444        9.1901522722       19.8431847908
  C        -0.0358879241       10.9592925367       26.8078239172
  H         0.7928951555        9.3829437019       25.7195773685
  C        -0.4707594014       12.6906647048       28.0416172968
  H         5.5611842459       13.9553214780       24.5150614791
  H         4.4176052701       15.2119999262       24.3975226126
  C         5.2127151718       14.5607217189       22.4773131033
  C         2.2074611028        7.8122748806       19.6594360077
  C         2.7046932904        9.9806084062       18.6293304477
  C        -0.3756762946       10.2918008786       28.0829113367
  C        -0.6173459368       11.6122941909       28.8223818090
  S        -0.6394201993       14.2052378964       28.8489000457
  H         5.7206387164       15.4965077579       22.4485226192
  H         4.3095697956       14.7507863824       21.8938989514
  C         6.1881616392       13.5333678003       21.8702746152
  N         1.8270852411        6.8355164265       20.6025562577
  C         2.5468630912        7.2418791502       18.4393552978
  C         3.0362939086        9.4088764618       17.4054268353
  H         2.8794647314       11.0149359579       18.7891925027
  C         0.7432903153        9.3805639849       28.7619849295
  C        -1.5975176467        9.4296874987       27.9166006125
  C        -1.0414839540       11.9450642928       30.1411586890
  C        -1.0707593558       13.3548341686       30.2691420668
  H         7.0864851318       14.0953832185       21.5394877947
  H         6.5709043613       12.8755104879       22.6627630984
  C         5.6865468556       12.6927769674       20.7224844216
  S         1.8916310039        5.3478219621       19.9404344773
  N         2.4912052424        5.8486462903       18.4802170361
  C         2.9000802662        7.9629064230       17.2733966957
  H         3.3363665379       10.0075043283       16.6728266277
  H         1.1323861790        8.6201418782       28.1184269288
  H         0.2513053726        8.8657624273       29.5869168854
  C         1.8672476886       10.1500148259       29.3763880609
  H        -1.2572954141        8.5394598965       27.3397217240
  H        -1.9739960371        9.0720678787       28.8660039892
  C        -2.7403022573       10.1265807847       27.1649192029
  H        -1.1493943876       11.1519688862       30.8723068756
  C        -1.5734632589       14.0048906333       31.5471706984
  H         4.7292575032       12.2717485088       21.0313246288
  H         6.3844018088       11.8028868372       20.7304176800
  C         5.6935234626       13.3889366121       19.3901077474
  C         3.1442011112        7.2433032198       16.0731273276
  H         2.2476144332       10.8036267827       28.5371596290
  H         1.6528913446       10.7665559706       30.2018732796
  C         2.8987605766        9.2393052911       29.9370738884
  H        -2.4829173626       10.3591201164       26.1388633597
  H        -3.0340527477       11.1257030590       27.4818676102
  C        -4.0305660722        9.3685929766       27.1683169331
  C        -1.8128168327       15.3725167165       31.7424320221
  C        -1.6839327166       13.1681649890       32.7318130184
  H         5.0537662035       12.7122498739       18.7961883683
  H         5.1756463735       14.3772392699       19.3704484419
  C         7.1354481569       13.4118076301       18.7750570795
  H         3.0604921227        6.1348119647       16.1120663960
  C         3.3797470802        7.6110770433       14.7524152999
  H         2.9891727563        8.3961922928       29.2832973904
  H         2.4818073910        8.7820808176       30.7836099952
  C         4.2205022388        9.8746302773       30.1486285125
  H        -3.8531186655        8.5784053618       26.4651249753
  H        -4.2193054371        8.8740846427       28.0783414079
  C        -5.2176727153       10.2016000067       26.7084843666
  N        -1.7587874419       16.3823018198       30.7867305455
  C        -2.0845398315       15.9248720604       33.0126559965
  C        -2.0500274169       13.6362209783       33.9518246419
  H        -1.4172232737       12.1636743004       32.6588844813
  H         7.1220167843       13.6958130246       17.7241411259
  H         7.6719166737       14.2445751796       19.2242088508
  H         7.5171755449       12.3499768870       18.7454980866
  S         3.7040442241        9.2303644202       14.1723805944
  C         3.5171899872        6.5599338257       13.7198623705
  H         4.3003311860       10.6940086835       29.4209972355
  H         4.2705326809       10.3048472676       31.1625192792
  C         5.3957884905        8.8724018330       30.0182999065
  H        -4.9226709560       11.1841247001       26.4499639636
  H        -5.8311544294       10.2123687730       27.6359405911
  C        -5.9460077432        9.5051291959       25.5610602339
  S        -1.8839490928       17.7913302741       31.5268334895
  N        -2.0831088962       17.2888294615       33.0624272162
  C        -2.2224364153       15.0762261722       34.1485489181
  H        -2.0897414567       12.9862625111       34.8047427344
  C         3.9708793982        8.4420945248       12.6005772523
  N         3.8268769535        7.1143279528       12.5561561457
  O         3.3946930648        5.3680335963       13.8699303002
  H         6.3460026255        9.3586469951       30.0362155313
  H         5.3709831730        8.5267992794       28.8861908733
  C         5.2928649787        7.6941351471       30.9905719124
  H        -5.4268376410        9.5268283309       24.6325899773
  H        -6.0632529235        8.4711172013       25.8581263710
  C        -7.2991362228       10.1256288507       25.2594935339
  C        -2.5278060886       15.6482985310       35.4566257405
  S         4.2068917374        9.1934116194       11.0356118460
  C         3.7625466060        6.3749159939       11.3340396937
  H         5.4939830230        8.0161515217       31.9870859501
  H         4.3362852253        7.3050191690       31.2218521444
  C         6.2374091891        6.5016904932       30.6186843179
  H        -7.3070447729       10.2973255349       24.1510693182
  H        -7.3305097725       11.1534961615       25.6979922407
  C        -8.5794628242        9.3301506841       25.5205018865
  H        -2.6657827801       16.6837590807       35.5351276626
  C        -3.0145740001       15.1246391715       36.6343115844
  H         4.4342231396        6.7613807880       10.5897194584
  H         4.0695666165        5.3418541061       11.4228023475
  C         2.4044465954        6.3587397668       10.7410038956
  H         7.3174790815        6.7663932115       30.5401329391
  H         5.9717342737        6.0875189961       29.6583003608
  C         6.2262969405        5.3356039022       31.6367734021
  H        -9.2981599480        9.3272100741       24.7041304591
  H        -8.2546413387        8.3079309368       25.6173824002
  C        -9.2791628670        9.7286284378       26.8612077617
  S        -3.5928218492       13.5014799341       36.9289825606
  C        -3.1133825177       16.0911256546       37.7647403328
  H         2.4099692782        6.7344369413        9.7328824606
  H         2.1548320090        5.2770769782       10.6030100102
  H         1.7563264946        6.9110852963       11.3776343466
  H         6.5894874498        4.4144046055       31.2150108791
  H         5.2065358724        5.2233430724       31.8637762770
  H         6.7246821361        5.5946822764       32.5288808136
  H        -9.9507189190        8.9750865099       27.0875258667
  H        -9.8410108749       10.6336416457       26.8781958394
  H        -8.5500812929        9.7356191826       27.6758338128
  C        -4.2611650676       14.1762520139       38.4140596035
  N        -3.9508082726       15.4473686343       38.6507763916
  O        -2.5718483394       17.1944108440       37.9090223774
  S        -4.9018976542       13.2358425357       39.7266934814
  C        -4.2701007527       16.1883877936       39.8759822390
  H        -4.4878910827       17.2345095736       39.7194583443
  H        -5.1647478660       15.8069018660       40.3098149297
  C        -3.1227844836       16.0512753208       40.8635204917
  H        -3.2383326979       15.0853665943       41.2757388730
  H        -2.1032688073       16.0601941994       40.3899392702
  H        -3.2369802714       16.7322104468       41.7522623399
  H         7.4924470135       11.3265239309        3.3690022493
  C         7.9189027173       10.2990464811        3.5745697827
  H         7.0586042681        9.5626397448        3.4881284887
  C         8.7458971520       10.1730049580        4.9205230435
  C         8.8818054884       10.1292363477        2.4437736891
  C         7.8676682127       10.4807054470        6.0850421271
  H         9.1936423215        9.2118891080        5.1393603018
  H         9.5147584008       10.8824587630        4.9343862161
  H         9.8289755794        9.8734761969        2.9167702780
  H         9.1409370487       11.1382863266        2.0003975691
  H         8.4766484972        9.5594216822        1.6639396544
  C         7.2800599169        9.1673235983        6.6790151720
  H         8.4508834452       10.8956364196        6.8492897627
  H         7.0451932739       11.1766977864        5.8886528817
  C         6.3678905684        9.2461350454        8.0103118600
  H         8.0750222972        8.4027704958        6.8081692976
  H         6.6645420784        8.7358361547        5.8961379981
  C         5.1226493213       10.2030864295        7.8224190623
  H         6.9785887965        9.6174227519        8.8592611590
  H         6.0604476826        8.2719281167        8.3049886752
  C         4.0021519659        9.6753437349        7.0214800048
  H         4.7204003211       10.5121281896        8.8131849895
  H         5.5073649064       11.0778098101        7.3420153209
  C         2.7402328720       10.5298964336        6.8674528272
  H         3.8059233456        8.7461285075        7.5280532700
  H         4.4396497989        9.3431173413        6.0661815632
  C         3.0717480905       11.8760913901        6.2408551798
  C         2.0956999475       11.2373413434        8.0348374898
  C         1.6789312501        9.8521993437        6.0391065095
  C         2.6525409367       12.9844041001        6.9640219769
  C         3.7848927150       12.2307450118        5.1125690214
  C         2.1171490366       12.5724209167        8.1517567947
  C         1.7052566738       10.5599654829        9.1817072940
  H         2.1484241022        9.2705765593        5.2678782140
  H         1.2136764298        9.1505007678        6.7108781339
  C         0.6151632521       10.7926579188        5.4316451643
  S         2.9039847523       14.4519964349        6.2479469570
  C         3.6780148356       13.5899922841        4.9159946560
  H         4.1249956236       11.4278729782        4.4493847626
  C         1.7278934303       13.1790259125        9.3146374373
  H         1.8514004570        9.5047207229        9.3060845834
  C         1.2073019384       11.1434005634       10.3076360654
  H         1.1117631328       11.5839288870        4.8889130291
  H        -0.0201363911       11.3099947822        6.2071119519
  C        -0.3637371662        9.9365676535        4.5444140397
  C         4.1865276663       14.3725126154        3.6741548285
  C         1.2035310698       12.5214256189       10.4227837147
  H         1.8385231894       14.2134664862        9.3986693414
  C         0.7796745773       10.7503530241       11.5451478570
  H        -1.0135952291        9.3202507781        5.1444407644
  H         0.1597823323        9.2010381713        3.9557070672
  C        -1.1268379680       10.7730355014        3.5860620729
  C         4.1829749166       15.7515269174        3.4069733303
  C         4.8078726667       13.5918709470        2.5561892654
  C         0.7533656942       13.1867494806       11.6818230606
  C         0.4646724203       11.8427523631       12.3650824989
  S         0.4749218300        9.2392043930       12.2220938407
  H        -0.4155218347       11.5446668645        3.1959219529
  H        -1.8493942202       11.4235821754        4.1084008037
  C        -1.9321387162       10.0599834380        2.5398171645
  N         3.6580865312       16.7318999124        4.2483691417
  C         4.5761393672       16.2369945894        2.1590661727
  C         5.1142325434       14.0952228548        1.2889040082
  H         5.0835064978       12.5871851609        2.7440343585
  C        -0.4720092819       14.0643541675       11.3750115096
  C         2.0061685131       13.9168741158       12.2871700358
  C         0.1012924545       11.4272524891       13.6185887423
  C         0.1324512120       10.0213060792       13.7106470447
  H        -2.6184321749        9.4185151036        3.1202228059
  H        -2.6380057340       10.7786175748        2.0141201168
  C        -1.1232647806        9.1981985974        1.4710904693
  S         3.9055496047       18.2007073950        3.6390875617
  N         4.4080640524       17.6519030872        2.1739420084
  C         4.9497663280       15.4922575012        1.0247412804
  H         5.5899334560       13.4381960966        0.5553590957
  H        -0.3063731328       14.9047671719       10.6874363900
  H        -0.8470325218       14.5877541231       12.3264704196
  C        -1.7102522997       13.3523636307       10.9831359520
  H         2.3736705368       14.7022902127       11.6455959678
  H         1.5606064370       14.4383516499       13.1905858308
  C         3.2217757848       13.0098657478       12.6604512780
  H        -0.0131196741       12.1575339271       14.4317476553
  C        -0.0336635254        9.1833828815       14.9578427579
  H        -1.8335810794        8.6192686990        0.9373075329
  H        -0.3862936810        8.4955008632        1.9426904613
  C        -0.2540182744       10.0205938230        0.4982228900
  C         5.1330595963       16.1930718135       -0.2160625061
  H        -1.4317942573       12.4699367336       10.3398373621
  H        -1.9512408692       12.8927811119       11.9417729411
  C        -2.8871604521       14.2301416790       10.6742945654
  H         3.7376820585       12.5014341299       11.8783080568
  H         3.0378843249       12.2515878316       13.4477162935
  C         4.3321056714       13.8396725730       13.2257578060
  C        -0.0722562676        7.7306714511       15.0603833351
  C        -0.1742473769        9.8974379279       16.2418139312
  H        -0.3225982978       11.0335191128        0.9781258736
  H         0.8093247548        9.7134230373        0.6131210349
  C        -0.7162394327       10.0883454508       -1.0179246722
  H         5.0608986278       17.2558695756       -0.2149404406
  C         5.3548069839       15.7522165646       -1.4951463131
  H        -2.4855866362       14.9895812492       10.0092241859
  H        -3.1922803973       14.8728184116       11.4883188374
  C        -4.1737093742       13.4836421343       10.1944340849
  H         4.6615901655       14.6326699561       12.5258894583
  H         3.9006330887       14.4204100859       14.0649332597
  C         5.4834132363       12.9635837947       13.8357811821
  N         0.2364591152        6.8114008425       14.0364872541
  C        -0.3539141729        7.1039235655       16.2488572958
  C        -0.3888449482        9.2980784756       17.4057008800
  H        -0.1963730325       10.9923532533       16.3082444607
  H         0.1357154655       10.1519033427       -1.7739773686
  H        -1.5091730006       10.8409641716       -1.2030652699
  H        -1.0249882639        9.0610183437       -1.2074092057
  S         5.7165054469       14.1768007478       -1.9566532673
  C         5.4814667438       16.7230868674       -2.6171415725
  H        -3.7468687024       12.6020742216        9.7042690466
  H        -4.7153872574       13.3218027941       11.0931487729
  C        -5.0061424800       14.2609371638        9.1401496468
  H         5.5782802560       11.9182786721       13.5222014017
  H         5.1771421546       12.8867248699       14.8229218205
  C         6.8623452869       13.5930856658       13.7045787835
  S         0.0027224351        5.2848543934       14.5726008153
  N        -0.3409684246        5.6682012640       16.1663052878
  C        -0.5697823072        7.8243995018       17.4935371510
  H        -0.6771675690        9.9049604509       18.2539367937
  C         5.8605209553       14.7937967940       -3.6002801878
  N         5.8753112525       16.1141168850       -3.7429215102
  O         5.4573393403       17.9280980280       -2.3960292617
  H        -5.4964086655       15.1217594133        9.6640942536
  H        -4.3820143832       14.8341663778        8.3771851900
  C        -6.2995450634       13.4861888804        8.6406132628
  H         7.6264179652       12.7819046919       13.7329747809
  H         6.7424594264       14.0905705752       12.6894425853
  C         7.2252230060       14.5691114267       14.8271922104
  C        -0.9201742564        7.0745547179       18.7104126980
  S         6.3111447757       13.9428503544       -5.0328481513
  C         5.6968520105       16.8230749816       -5.0659065012
  H        -6.4432764618       13.6915315730        7.5693028036
  H        -6.1857877827       12.3620136631        8.7565583597
  C        -7.5358381586       13.9266426881        9.2890969060
  H         7.6233125675       13.9902080820       15.5977474317
  H         6.2982933145       15.1059984681       15.0871667182
  C         8.3034045071       15.5759994221       14.3562655478
  H        -0.8202524129        6.0469306332       18.5453100871
  C        -1.2370401678        7.4403925756       19.9833324970
  H         6.1227679021       16.2518157832       -5.8784870551
  H         6.1982478892       17.7629618329       -4.9620727022
  C         4.2570911193       17.0965805962       -5.4881520367
  H        -8.3706672675       13.7878185557        8.6308531160
  H        -7.5227308901       15.0106652954        9.3938739078
  C        -7.9504948697       13.2274189570       10.5664230745
  H         8.7216473835       15.9024623102       15.3173471815
  H         8.9945859088       14.9336889629       13.8270961684
  C         7.7898834861       16.7589868388       13.6328824485
  S        -1.4323197741        9.1184203246       20.5155853001
  C        -1.5454082114        6.4182486241       21.0300484402
  H         4.1986194670       17.6396766617       -6.4765150796
  H         3.7253566143       17.5856722176       -4.6494429407
  H         3.6889533206       16.1713884586       -5.6689456483
  H        -8.7908466906       13.6663887616       11.1520672575
  H        -8.3146054301       12.2436725252       10.3898863211
  H        -7.0459428652       13.0533369480       11.2416075198
  H         6.9930914703       16.5703052809       12.8693099538
  H         7.3889805338       17.4122813865       14.3404086197
  H         8.5480159677       17.3436025015       13.1074408530
  C        -1.8133767248        8.3341350123       22.0767159596
  N        -1.9326864196        7.0109479649       22.0952188317
  O        -1.2608510031        5.2382988078       20.9424347980
  S        -2.2365955000        9.1856850807       23.5344545728
  C        -2.1449726126        6.2486914776       23.3256999749
  H        -2.3446510949        5.2224949821       23.0570251245
  H        -2.9928497075        6.5331045655       23.9629162827
  C        -0.7616336979        6.1610401797       24.0155953195
  H        -0.0078536732        5.6412736075       23.5324909481
  H        -0.8818806507        5.5729383822       24.9174303091
  H        -0.4479979187        7.2361827056       24.0884188411
