352
i =
  H        -3.1476525149       15.3283856689       16.1071676406
  C        -3.3396682566       14.3143785158       16.3615941235
  H        -4.2831052465       14.3447681881       16.9904342032
  C        -2.2580675788       14.0119333887       17.4144455319
  C        -3.4971490600       13.4051326341       15.1155509742
  C        -2.8310238318       14.1366935912       18.7953412934
  H        -1.8570918966       13.0270904888       17.2901348434
  H        -1.3991598251       14.7056300241       17.2484696380
  H        -2.8262298229       12.5483976037       15.1448491393
  H        -4.5976225415       13.1788520996       14.9355821730
  H        -3.1308227240       13.9295875735       14.1713720133
  C        -1.7334137011       13.7033509722       19.7581689289
  H        -3.6759032180       13.4253471359       18.9257086731
  H        -3.1388536055       15.1870915443       19.0898645906
  C        -2.1667290930       13.9142764553       21.2010790650
  H        -1.5557919828       12.6858747599       19.5835034650
  H        -0.7796996357       14.1799012857       19.5779161088
  C        -1.1358206647       13.2716022654       22.1070676303
  H        -3.0799420501       13.3621318419       21.2588806640
  H        -2.4459611530       14.9253202115       21.4220354285
  C         0.1747176363       14.1372715050       22.3296894439
  H        -1.6329502365       13.0648592373       23.1019093200
  H        -0.9105454421       12.2707164868       21.7091668404
  C         1.3643961070       13.3640498118       22.8439000525
  H         0.4752613498       14.6899406242       21.3733057850
  H        -0.0593409030       15.0136033073       22.9714157501
  C         1.7227213906       12.1792263247       22.0749680011
  C         0.8942271942       12.5494896353       24.0194278688
  C         2.4855542183       14.4160356178       23.2038626312
  C         1.4908250010       11.0018432433       22.7942850238
  C         2.3498768202       11.9921025951       20.8596648500
  C         0.9731821635       11.2284518453       24.0333662406
  C         0.4085049532       13.0556457473       25.2270463369
  H         2.6555354136       15.1355308503       22.4753580800
  H         2.1967304718       14.9632624902       24.1499725070
  C         3.7301429166       13.6471210824       23.5636185600
  S         1.9526036718        9.6188954850       21.9767158251
  C         2.4476792321       10.6657950078       20.6193657317
  H         2.5626560270       12.9035428070       20.3049485746
  C         0.5590529341       10.4920407121       25.0792657004
  H         0.3666866623       14.1513754069       25.2455507157
  C         0.1026093961       12.3962575354       26.3593342080
  H         4.0191983037       13.0987223146       22.6769983173
  H         3.5536356929       12.9773365664       24.3879823231
  C         4.9283386007       14.5485710812       23.8611469144
  C         2.8765269650       10.1170962643       19.2573108742
  C         0.1557004891       11.0331884262       26.3709265343
  H         0.5842899054        9.4354340154       25.0082842215
  C        -0.4035525993       12.7584999896       27.6050321730
  H         5.5490029467       14.0459105056       24.5727837564
  H         4.5871513560       15.4453121930       24.4639285572
  C         5.6384114899       15.0563050610       22.5709568143
  C         2.7261124173        8.7801623984       18.8372012887
  C         3.4995230414       10.9573528041       18.2333308605
  C        -0.2349357007       10.3422212683       27.6154714344
  C        -0.4917605848       11.6529376499       28.4124624457
  S        -0.6572080194       14.3195178549       28.3481547494
  H         6.4702233998       15.6068715584       22.9053138291
  H         4.9378538734       15.5837699626       22.0086423622
  C         6.2570595204       13.8805827368       21.7525019756
  N         2.3513584531        7.8102937424       19.7394616546
  C         2.9791896137        8.2335480214       17.5924424593
  C         3.8435243985       10.4714626007       16.9650080142
  H         3.6827003792       12.0334581486       18.4430692483
  C         0.8723222405        9.5820779618       28.3616900001
  C        -1.5737200374        9.5307684999       27.3758159068
  C        -0.8479838449       12.0962815100       29.6924382435
  C        -1.0124605094       13.4331944283       29.7958787925
  H         7.3412487072       13.9878115019       21.8078036318
  H         6.1849019844       13.0275418436       22.2838942018
  C         5.8324677727       13.7012638252       20.3031093413
  S         2.4153837610        6.3512438135       19.0171761538
  N         2.7392557263        6.8383675631       17.5285432166
  C         3.5180261324        9.0504435998       16.6052105558
  H         4.4207144273       11.1541763609       16.3268230470
  H         0.9888737053        8.7306135167       27.7439779586
  H         0.3765007959        9.2665043368       29.2626713386
  C         2.1882432511       10.2374204153       28.5413546438
  H        -1.4120547546        8.9406126617       26.5709071012
  H        -1.8630713028        8.7877254501       28.1796274990
  C        -2.7812197386       10.4883417881       27.0821622862
  H        -1.0016231937       11.3478817186       30.4547488904
  C        -1.3587681380       14.1858776156       31.0533605606
  H         4.9539202741       14.3382767922       20.1820231299
  H         5.5535807462       12.6231308172       20.2059843662
  C         6.7798036083       14.0284613120       19.2207268917
  C         3.7907101542        8.4824008127       15.3100662822
  H         2.5638857779       10.7325738183       27.6082593506
  H         2.0636566230       11.0757347294       29.2038011337
  C         3.3014915742        9.2863196882       29.1172170198
  H        -2.5895132882       11.1488781453       26.2293739821
  H        -2.9548255078       10.9427300994       28.0270815927
  C        -4.0140527646        9.6759805554       26.8040810781
  C        -1.3913828468       15.5971539167       31.1731610554
  C        -1.4896035494       13.4210062680       32.3081755075
  H         7.3077905027       14.9562929928       19.4435850913
  H         7.5625527336       13.2160731830       19.2430300754
  C         6.0607455986       13.9514817126       17.8694681890
  H         3.5884587973        7.4020001466       15.2448397311
  C         4.1671716985        8.9635349978       14.0935792869
  H         3.8000480699        8.8265798951       28.2570300169
  H         2.9010710436        8.5466911822       29.7325563663
  C         4.2557510397       10.1605281497       29.9709386108
  H        -3.8203111398        8.9547387910       26.0115805689
  H        -4.3418318495        9.1569165344       27.7108736522
  C        -5.1167159322       10.6822830631       26.3028774207
  N        -1.1746909446       16.5508710197       30.1703137891
  C        -1.7174551016       16.2108828784       32.4166822040
  C        -1.7941254724       14.0408220205       33.5043006991
  H        -1.2089670725       12.4131590937       32.4029345313
  H         4.9870287518       14.0067541660       18.0324893724
  H         6.3507051904       14.8775379607       17.4095433107
  H         6.2645978018       13.1077168010       17.2604098355
  S         4.3352733454       10.6373178014       13.6421710848
  C         4.3634515108        7.9573948572       12.9450213648
  H         4.2459872026       11.2093436889       29.8562039391
  H         4.1296960432        9.9834370436       31.0010113375
  C         5.6722858138        9.8211734313       29.7366567923
  H        -4.6718337075       11.4211290493       25.6428761330
  H        -5.4152219796       11.1653010332       27.2226305438
  C        -6.3736640529       10.0062195727       25.7810494072
  S        -0.9978780971       17.9859352726       30.9363805775
  N        -1.5729921768       17.6014948651       32.4070752640
  C        -1.9618024988       15.5077582232       33.5959595055
  H        -1.8510554011       13.4417686211       34.3656251415
  C         4.7343161262        9.9898435693       12.0405107939
  N         4.7930912891        8.6360008438       11.8882855854
  O         4.2623443704        6.7182114247       13.0483617394
  H         6.1796501391       10.6511878121       30.1071051406
  H         5.9112478062        9.7623992295       28.7022507703
  C         6.1711056876        8.6279825699       30.5866714637
  H        -5.9769037628        9.1205022504       25.3278208859
  H        -7.0927847661        9.8586954684       26.6151888733
  C        -7.1848691676       10.8432372567       24.8800052663
  C        -2.3320459923       16.2927056059       34.7502056089
  S         5.3113957643       11.0579852451       10.7896673995
  C         4.9434252514        7.9881374081       10.5872688674
  H         7.2352716884        8.7772319943       30.7747432722
  H         5.7156097072        8.4843028743       31.5837263414
  C         5.9608998520        7.1811787113       30.0357075475
  H        -6.8615595337       10.8184892758       23.8815093372
  H        -6.9509267054       11.8331609446       25.1417863861
  C        -8.6399169790       10.6227396469       24.9987556126
  H        -2.4224890921       17.3093136048       34.5527218898
  C        -2.6637176347       15.9183327547       36.0056126410
  H         5.5591933253        8.5769977517        9.8648279709
  H         5.4499086486        7.0188821048       10.8030578051
  C         3.5857996435        7.6448170286        9.9066780222
  H         6.0352101357        7.2438098991       28.9542715833
  H         4.9637897325        6.8152091505       30.2690747068
  C         7.0136240757        6.1911940910       30.5026022704
  H        -9.0721134319       11.1618309217       24.1732027986
  H        -8.9347597671        9.5909971040       24.9860630584
  C        -9.1665468948       11.2526750053       26.3135016033
  S        -3.0145064532       14.3612232559       36.5558753293
  C        -2.9554293936       17.0688457550       36.9260065792
  H         2.7839135230        7.5216376788       10.6403645773
  H         3.1867241331        8.1856081448        9.0077545282
  H         3.6708751937        6.6434195543        9.5806408970
  H         6.9852928434        6.1954072043       31.5840551776
  H         8.0450520856        6.4708160629       30.2412615859
  H         6.9841963111        5.2720178914       30.0078190814
  H        -9.2626009064       10.5245800579       27.0901119338
  H       -10.1481718044       11.7055034348       26.2647200348
  H        -8.5592051887       12.0321053175       26.7426535377
  C        -3.3882478644       15.2088255790       38.1103952305
  N        -3.4045424001       16.5674087934       38.0731180640
  O        -2.6616578838       18.2288258060       36.7135397262
  S        -4.0123781612       14.3870599236       39.5400763244
  C        -3.7753595072       17.3758784201       39.2123346837
  H        -4.1240435713       18.3117008439       38.8199498535
  H        -4.6940200484       16.9874916643       39.6376374609
  C        -2.7440256104       17.4671229656       40.3304239483
  H        -1.9107487472       16.7891777550       40.0090877370
  H        -2.3555848390       18.5162807946       40.4053408081
  H        -3.2647666745       17.1069582669       41.2609943133
  H         8.2355045300       11.9341563596        3.3769000250
  C         8.7957814434       11.0399498749        3.4103181804
  H         8.0254249126       10.3327160028        3.3195666407
  C         9.3255839790       10.7368835724        4.8252727503
  C         9.7844362041       10.8515014950        2.2510011838
  C         8.3418323658       11.2341073685        5.8571559592
  H         9.6065944360        9.7179918431        5.0897695500
  H        10.2738165552       11.2432506224        4.9879085083
  H        10.4158135239       11.6928393152        2.2395138744
  H         9.0952671309       10.7825003677        1.3848826530
  H        10.3648827035        9.9190857145        2.3106763041
  C         7.1496184472       10.2689215617        6.2005027423
  H         8.9683374023       11.4102066863        6.7875212581
  H         7.9753021240       12.1535966933        5.6363638611
  C         6.4830151142       10.5480290927        7.5938178310
  H         7.6709183372        9.3424411530        6.3589671058
  H         6.3463509491       10.2052202297        5.4727523953
  C         5.2793390344       11.4982475345        7.3370956341
  H         7.1159682751       11.0461432171        8.3365919983
  H         6.0373135226        9.7186415137        8.1201900446
  C         4.0594860111       10.6870990212        6.9393462249
  H         5.1373837189       12.1256950388        8.2077976154
  H         5.5962977031       12.1823608228        6.5518600708
  C         2.7938361130       11.5410213546        6.7501573821
  H         3.8032566763        9.9451343335        7.6994422748
  H         4.1528915111       10.0931047898        6.0396000483
  C         3.1136054277       12.8946565302        6.1467192602
  C         2.3428116812       12.1071846773        8.0540037066
  C         1.6829368749       10.8326545149        5.8009711848
  C         3.0070916200       13.8893617261        7.0864947832
  C         3.5590874348       13.2943990132        4.9276858588
  C         2.4777103789       13.4355212326        8.3040740900
  C         1.8637387469       11.4338320410        9.1569192503
  H         2.0970978393       10.5954361090        4.7850639129
  H         1.3943429357        9.8648485724        6.3096630367
  C         0.4012111734       11.5543460035        5.7140129174
  S         3.6499834976       15.3965462695        6.4770987148
  C         3.7886022193       14.6124145956        4.9244066290
  H         3.6543644180       12.4713435884        4.2167180113
  C         2.0967328390       13.9786450385        9.4812315039
  H         1.7415122897       10.3699396323        9.0429827166
  C         1.6058230220       11.9857408384       10.3785012160
  H         0.6795522366       12.4545971455        5.2601476211
  H        -0.1312286868       11.7570217039        6.7038836815
  C        -0.5358606213       10.7144496100        4.7486746776
  C         4.3489205177       15.2928532491        3.7261466887
  C         1.6817287969       13.2836875021       10.6256328761
  H         2.1993073113       15.0574402013        9.5218933984
  C         1.2315816330       11.4965958546       11.5881755168
  H        -1.5065006462       11.2056723899        4.8626935140
  H        -0.5666087837        9.6690980637        4.9751670835
  C        -0.0432692275       10.7791068633        3.3070911919
  C         4.4225779360       16.6740048286        3.4814785462
  C         4.6966472540       14.4697920642        2.5704880025
  C         1.2950695904       13.8819346053       11.9359954371
  C         0.9710267364       12.4768646501       12.5337411288
  S         1.0738901152        9.8778981592       12.1686615152
  H         0.8611968353       10.1096619457        3.0779995585
  H         0.2156441303       11.7776106630        3.0941325211
  C        -1.0307212932       10.3364371341        2.2250212300
  N         4.1338628146       17.6357688910        4.4190333424
  C         4.7247131156       17.1601888119        2.2273086980
  C         4.9757392205       14.9828433655        1.3342652941
  H         4.5990903966       13.3920250466        2.6547623090
  C         0.1464145846       14.8490482125       11.7884408585
  C         2.5837536835       14.5714558123       12.4422364679
  C         0.5321347009       11.9487625755       13.7083915453
  C         0.5940633867       10.5519964766       13.6867182476
  H        -1.7427694528        9.6211983469        2.6808166569
  H        -1.5798405444       11.1686750770        2.0491518661
  C        -0.3889856826        9.7037484320        0.9385486664
  S         4.3269351588       19.0889781085        3.6604843704
  N         4.6954112192       18.5706641026        2.1873012466
  C         4.9627076155       16.3741399365        1.0965981514
  H         5.2990088755       14.3120582233        0.5315545190
  H         0.3397528440       15.7050550652       11.1208391046
  H        -0.0694098148       15.2981185666       12.7342117414
  C        -1.1748158364       14.0944763527       11.4181070023
  H         3.3792157024       14.1693024670       11.8831270762
  H         2.5397284864       15.6650479048       12.2818241886
  C         2.8592352203       14.2688391896       13.9095957894
  H         0.3171115365       12.5809473337       14.4593141676
  C         0.2084081456        9.8055060663       14.8885233417
  H        -1.1913858562        9.0702765512        0.5376755211
  H         0.4231572356        9.0268787518        1.1221889619
  C         0.0722554975       10.8729674922        0.0269190466
  C         5.2764036038       16.9614615223       -0.1889508058
  H        -1.0473821420       13.6237139967       10.4538454295
  H        -1.5293863102       13.3973099168       12.1786355052
  C        -2.3128994248       15.0837410502       11.0364062429
  H         3.1429153301       13.2072138349       14.0086216619
  H         1.8469330641       14.3176022678       14.3927702958
  C         3.8579472778       15.1907484442       14.6985684342
  C         0.1658118022        8.3928190218       14.9922303030
  C        -0.1179405322       10.4446945288       16.1652226928
  H         0.1865806866       11.7794695540        0.5903672224
  H         1.0283454466       10.5279077772       -0.3636046842
  C        -0.8333933691       11.3197365089       -1.0589844155
  H         5.3893999619       18.0481374617       -0.0795451087
  C         5.5245607992       16.5001216965       -1.4518187766
  H        -1.9583686739       15.5378530198       10.0766862939
  H        -2.3383781078       15.9926038218       11.5616184800
  C        -3.6453167001       14.3844628208       10.8926291426
  H         3.3874286319       16.1661042907       14.9035069966
  H         3.9968343508       14.7895777518       15.6925790978
  C         5.1962384520       15.2531349606       13.9962311792
  N         0.6335234409        7.5528940880       13.9562131694
  C        -0.1638911143        7.6730356511       16.1493587441
  C        -0.4663666895        9.7791826089       17.3191402717
  H        -0.1551591518       11.5070474039       16.2955771164
  H        -0.8201553875       10.6781115222       -1.9030747604
  H        -0.5383158669       12.2897286138       -1.3926665347
  H        -1.8961703567       11.3567685229       -0.7476736617
  S         5.7102202634       14.8870902935       -2.0258335272
  C         5.7542243913       17.5530358350       -2.5186322366
  H        -3.4243343238       13.3799699137       10.5429124719
  H        -4.1591174326       14.2229963538       11.8497234938
  C        -4.6928520434       14.9415198863        9.9536394800
  H         5.1319426583       15.5367534043       12.9665099106
  H         5.6422375294       14.3037136565       13.9844433845
  C         6.0663076621       16.3797050925       14.5809918861
  S         0.2800548032        6.0490488528       14.4638072648
  N        -0.3616776651        6.3270629117       15.8562989986
  C        -0.4108240839        8.3095926324       17.4068047766
  H        -0.6814658745       10.4207675021       18.1417174982
  C         6.0558679919       15.6078944389       -3.5579430034
  N         6.0263278811       16.9185424863       -3.6703757443
  O         5.5297257569       18.7543045163       -2.3177807223
  H        -5.3197592379       15.6086538873       10.5537451505
  H        -4.1455066688       15.4810967027        9.1666217739
  C        -5.4729712033       13.8121622959        9.1953302519
  H         5.5592985841       17.2471097743       14.9389988878
  H         6.5435433434       15.9584654693       15.4597857551
  C         7.0841829047       16.8507600353       13.5831113389
  C        -0.6207892009        7.5354636762       18.6035698822
  S         6.5883620934       14.6868409320       -4.9672840522
  C         6.1381825667       17.6916638939       -4.9122842434
  H        -4.8595376811       13.4881954767        8.3641640172
  H        -5.7654689531       12.9006883737        9.7245904352
  C        -6.8099692072       14.4685711919        8.7282017162
  H         6.8771823409       16.5342473811       12.6269121798
  H         8.0281655445       16.3257983714       13.8775526835
  C         7.3486738693       18.3666165434       13.6100353820
  H        -0.4021475757        6.5027547301       18.5497528615
  C        -1.0866116910        7.9153955903       19.8431499353
  H         6.9407398271       17.2380955440       -5.5617671694
  H         6.4840734185       18.6840171412       -4.7003964694
  C         4.8653108034       17.6553985453       -5.7759797414
  H        -7.1322775291       13.8453512579        7.8278824994
  H        -6.7475186528       15.4964578546        8.2772374970
  C        -7.8463506199       14.5100574969        9.7879620114
  H         8.0410790522       18.7844942745       12.8297062969
  H         6.4597334313       18.9806141938       13.5088296105
  C         7.9442765220       18.6322609394       14.9695503914
  S        -1.5290556895        9.4491550666       20.3972607800
  C        -1.1294570555        6.7497928308       20.8106079743
  H         4.1137964619       18.2956902262       -5.2748566911
  H         4.4923541843       16.5862522052       -5.8435402470
  H         5.0632785123       17.9582796723       -6.8041888254
  H        -8.3348603246       13.5513066713        9.7841860899
  H        -7.4653445381       14.6526383132       10.8069601162
  H        -8.5784982656       15.2800598193        9.6602576928
  H         7.3232818115       19.1457897061       15.7085732932
  H         8.3813188285       17.7424424289       15.4323881618
  H         8.8427695183       19.2752809372       14.8243938769
  C        -1.8716765788        8.5683898242       21.8982679684
  N        -1.6537144433        7.2305920309       21.9395272024
  O        -0.8484244874        5.6058545702       20.5702779614
  S        -2.4711854081        9.3380211704       23.3960857524
  C        -1.7160779876        6.3824611721       23.1735803649
  H        -1.7931270334        5.3304017387       23.0360149671
  H        -2.6264234781        6.6832064905       23.6668295300
  C        -0.3425341546        6.5762471870       23.9390812127
  H        -0.1063347802        5.7611865476       24.5601154679
  H        -0.4580747278        7.4565312814       24.5244484661
  H         0.4300102184        6.7263692850       23.1858312613
