352
i =
  H        -3.5497145328       14.5867209019       16.3430518644
  C        -3.4316203424       13.5449641582       16.3294400676
  H        -4.3711134200       13.0630418537       16.6783115516
  C        -2.2425982521       13.2342076934       17.3337434006
  C        -3.1011270573       13.0589928281       14.9146597797
  C        -2.3644659105       14.1394934997       18.5480763098
  H        -2.2215944156       12.2265212502       17.6227674506
  H        -1.2571948346       13.3665507273       16.8350260102
  H        -3.0398685629       11.9647937667       14.7831946136
  H        -3.6984082197       13.5176971983       14.0964028918
  H        -2.0620988072       13.3393832599       14.6707976803
  C        -1.3915493709       13.6918215980       19.6875005231
  H        -3.3726901430       14.3089638154       18.9087839824
  H        -2.0312797369       15.0611633336       18.0581793991
  C        -2.0383218738       13.4798749097       21.1008911381
  H        -0.8977525258       12.7569240326       19.4197752258
  H        -0.5306422575       14.3868867004       19.7898136088
  C        -1.0761640079       12.8480975159       22.1017920154
  H        -2.9237678135       12.8956494774       20.8529220978
  H        -2.4393134273       14.4630354606       21.4436516821
  C         0.1104934353       13.7535801992       22.4512404153
  H        -1.6838699946       12.4574894444       22.8614045303
  H        -0.6371796234       11.9040352269       21.7045621466
  C         1.2332630897       12.9986900742       23.2581501396
  H         0.6086199739       14.2310818019       21.5686425115
  H        -0.3091714068       14.5133245343       23.0436858355
  C         1.5810086075       11.6137296042       22.6665091474
  C         0.6366364608       12.3302849482       24.5268816174
  C         2.3763071988       14.0224826036       23.5784730650
  C         1.1916641334       10.5509122902       23.4961652117
  C         2.0359875708       11.1223862811       21.4076043095
  C         0.5591862284       10.9989273615       24.5921974572
  C         0.2646616457       13.0129183490       25.6542543753
  H         2.5355624910       14.6251851116       22.6923843516
  H         1.9844583070       14.7256112529       24.3066960099
  C         3.6280192603       13.3946195582       24.1239261836
  S         1.6085163691        9.0031536700       22.8670999378
  C         2.1366707132        9.7716862813       21.3971330929
  H         2.3384412005       11.7621049371       20.6062552452
  C         0.1071965166       10.4151884639       25.7492221785
  H         0.1952635642       14.0846339449       25.7165954095
  C        -0.2323744970       12.3911363290       26.8023065729
  H         3.9621193909       12.5780120188       23.5066488088
  H         3.4393761924       12.9077162556       25.1046503122
  C         4.8148679115       14.3374975704       24.2641114125
  C         2.4662756073        8.9780315514       20.1419976119
  C        -0.3303589831       11.0481332627       26.8775677875
  H         0.1690981063        9.3767979673       25.8982024259
  C        -0.6584244164       12.7640726025       28.0541110427
  H         5.6089918104       13.9325464006       24.8805861059
  H         4.4199228211       15.0717068220       24.9710050252
  C         5.4811809548       14.8769364801       22.9956202806
  C         2.5937440526        7.5551770738       20.1161766654
  C         2.7389436009        9.7041478746       18.8949121863
  C        -0.8619848639       10.3302953029       28.0929570982
  C        -1.1025692549       11.7184297161       28.7772284539
  S        -0.7672921397       14.2827637159       28.8617136358
  H         6.0380694706       15.7729128026       23.3289314979
  H         4.6994329112       15.2364693076       22.3197732895
  C         6.3188619323       13.7753724648       22.3098825131
  N         2.4577556668        6.7263777304       21.1992436742
  C         2.9080855187        6.8702234275       18.9576530447
  C         2.9398791984        8.9796342937       17.7254873805
  H         2.7075191997       10.7376168221       18.8455962382
  C         0.1927020250        9.4939294938       28.8309138157
  C        -2.1345276726        9.5234260466       27.7311678990
  C        -1.5798596920       12.0941744760       30.0708728258
  C        -1.3435956070       13.4338369542       30.2820951092
  H         7.3432593372       14.1201374325       22.0352666098
  H         6.6329241541       12.9185037606       22.9912780718
  C         5.5752224613       13.1301453675       21.1651113770
  S         2.3050414765        5.2297890892       20.6100001071
  N         2.7103476167        5.5378670887       19.0747013151
  C         3.0427457145        7.4985783406       17.7285901272
  H         3.0701454682        9.5099536271       16.7884985440
  H         0.6799596978        8.8607358652       28.0782319920
  H         0.0141078508        8.7667151864       29.6802140936
  C         1.4332174494       10.3128663186       29.3103691857
  H        -1.8735774528        8.6247480200       27.2705491605
  H        -2.4425457438        9.1022678791       28.6514836915
  C        -3.3484891702       10.2408822591       27.1193655979
  H        -1.9839612984       11.3391937673       30.7115146552
  C        -1.5589117466       14.1290673880       31.5583488109
  H         4.7964322664       13.7584189977       20.7008802629
  H         5.0062915416       12.3968493157       21.6356323182
  C         6.4174190786       12.6101848458       20.0394385018
  C         3.2200280630        6.7805723019       16.5214088943
  H         1.8033986469       10.8244220166       28.4420981396
  H         1.2198522950       11.0596520303       30.1119509093
  C         2.5804631783        9.3871722785       29.7397104903
  H        -3.1155354671       10.3953000088       26.0796186622
  H        -3.3859159074       11.2041038355       27.5733816142
  C        -4.5893473039        9.5646193754       27.2534195758
  C        -1.6520665149       15.5424073632       31.7333366692
  C        -1.7426320048       13.3596615372       32.7784148620
  H         7.1284520363       12.0317077028       20.5303374833
  H         5.9886303968       11.7907846322       19.3983862959
  C         7.1882468227       13.5896951139       19.1538852934
  H         3.0478377282        5.6939627266       16.4539243920
  C         3.6143656491        7.2117441145       15.2743722681
  H         2.5349735437        8.4467176336       29.1757424377
  H         2.4893924952        8.9483524498       30.7502843197
  C         3.8813887312       10.1367354632       29.9918540141
  H        -4.4482259862        8.5445902536       26.7699203138
  H        -4.8692994396        9.4438494255       28.3080600971
  C        -5.7086641005       10.4273367829       26.6763757678
  N        -1.5219914195       16.5897576201       30.7490775990
  C        -1.9492179508       16.1468620322       32.9451966540
  C        -2.1519738830       13.9991299470       33.9658897212
  H        -1.6305442390       12.3037536699       32.7149914402
  H         8.0599914078       13.9411132257       19.5971835341
  H         7.4587360799       13.0546491157       18.2598217549
  H         6.5030045076       14.3664751522       18.9119003192
  S         3.9289559281        8.8845361753       14.7687642427
  C         3.7382743312        6.2087959182       14.1683797491
  H         3.9481145924       10.9863334563       29.2945467714
  H         3.7205545581       10.5363435190       31.0186902475
  C         5.1770124952        9.3002567701       29.7494005178
  H        -5.3504443917       10.9393869796       25.7565143309
  H        -6.0223639960       11.1243334025       27.4295436954
  C        -6.9836639627        9.6982738414       26.2613415955
  S        -1.4902145224       18.0648072314       31.3846605670
  N        -1.9274766789       17.5472177874       32.9021219885
  C        -2.1937903324       15.4207388061       34.1289264458
  H        -2.2945020253       13.4125057285       34.8487246962
  C         4.1905629210        8.2371040768       13.2033596964
  N         4.1403450785        6.9216523016       13.0874408528
  O         3.5311005168        5.0375741382       14.2687648314
  H         6.0376661343        9.8756278134       29.8691541979
  H         5.2131364705        8.7564369223       28.8489107859
  C         5.1681574932        8.2499998036       30.8540188280
  H        -6.5892668136        8.9696395837       25.5518150550
  H        -7.4708005670        9.1733437644       27.0752149577
  C        -7.9839843471       10.6664952616       25.6202528766
  C        -2.4037874190       16.1700462203       35.3420291181
  S         4.4991512291        9.2464916132       11.8233864715
  C         4.2491360517        6.2530184618       11.8294582547
  H         5.1355393356        8.8063462440       31.8047676307
  H         4.2832145916        7.6994223636       30.8069166757
  C         6.2314378414        7.2031912260       30.6838083775
  H        -7.4959156566       11.1737511006       24.8277566394
  H        -8.1783436209       11.4183612561       26.3772319320
  C        -9.2276340859        9.9987158081       25.1379800126
  H        -2.1316570499       17.1658489004       35.3188048356
  C        -2.9439500184       15.8181396627       36.5175176271
  H         4.8356751398        6.8364881654       11.1155438609
  H         4.8587353969        5.3599828844       11.9307143504
  C         2.8443323423        5.9499111365       11.2343377787
  H         7.2423301589        7.5378626558       30.5054568963
  H         6.1522194699        6.7309979978       29.6959964851
  C         6.2099194920        6.1900704722       31.7417410975
  H        -9.5308017524       10.5126652708       24.2598139097
  H        -8.9431079606        8.9809508723       24.8368502463
  C       -10.3355340528       10.0071149852       26.0969889946
  S        -3.5209125866       14.2202860289       36.9877642002
  C        -3.2133083159       16.8156093835       37.5606574932
  H         2.3843189049        6.7968468828       10.7064430525
  H         2.8336557513        5.0048018300       10.6788418635
  H         2.1226486132        5.8507426066       12.0516499231
  H         5.1711006367        6.0297301948       31.9840568125
  H         6.7309153668        6.6161811850       32.6293803127
  H         6.6155847036        5.1939134538       31.3955775144
  H       -11.1858732240        9.4638986161       25.7666825013
  H       -10.6944160699       10.9935239270       26.4255797585
  H       -10.2376549876        9.7523639204       27.1311857079
  C        -3.9594694407       14.8946677893       38.5292373009
  N        -3.7509972412       16.2689205479       38.6877741882
  O        -2.9230566061       17.9902084735       37.3440170681
  S        -4.6101185856       14.0862726019       39.9758085561
  C        -4.0380870843       16.9969305718       39.9598033926
  H        -4.2837593222       18.0143942341       39.6848957312
  H        -4.8918569686       16.6142545711       40.4751752652
  C        -2.8114461625       16.9446924479       40.8381215082
  H        -3.1224880419       17.0299405543       41.8775815133
  H        -2.3691397616       15.9720727614       40.6820217882
  H        -2.0144629108       17.6344796824       40.5615345209
  H         7.3370416752       10.6950231694        4.0288830318
  C         8.0277473042        9.8935432368        3.7834545490
  H         7.3929052610        9.0235870680        3.7024713646
  C         9.0066996618        9.7656680728        5.0191568528
  C         8.8850267281       10.1814502955        2.5686234734
  C         8.2132293280        9.9154488938        6.3383808451
  H         9.5938066295        8.8054314653        4.9332407205
  H         9.8488551040       10.5112417397        4.9857101428
  H         9.7845353933        9.5525885808        2.5724033780
  H         9.2138143105       11.1935246326        2.6543973548
  H         8.3421775373       10.0485773993        1.6161609318
  C         7.4754177274        8.6874219459        6.8197698387
  H         8.9660473170       10.0643332709        7.0989487163
  H         7.6260738624       10.9005004493        6.3993620595
  C         6.6302267083        9.0030390808        8.1139060485
  H         8.2272495481        7.9659259741        7.0395687297
  H         6.8223620721        8.2293981653        5.9502219771
  C         5.3348188482        9.8593257258        7.9269293265
  H         7.2646290746        9.5817333544        8.7614334084
  H         6.3608197252        8.0684333413        8.5804083203
  C         4.0188240017        9.2435023176        7.3913426415
  H         5.1043145295       10.2792846963        8.9105193007
  H         5.5812390022       10.6867188609        7.3139998441
  C         2.8646297225       10.2548259279        7.1653859921
  H         3.6692439371        8.4822467649        8.0664296245
  H         4.1299282375        8.7829788141        6.4133449599
  C         3.2666779413       11.5218332723        6.4246296829
  C         2.3701501148       10.9758408568        8.3465957628
  C         1.7061953848        9.6367255489        6.4773135046
  C         3.0212117667       12.6431993141        7.1624650102
  C         3.7476406620       11.8157017492        5.1720085149
  C         2.5149603586       12.3357860503        8.4022179311
  C         1.7833009059       10.4223367567        9.5073909782
  H         2.0815890150        9.1928568690        5.4988443358
  H         1.4593069021        8.7069458095        6.9387464846
  C         0.5124346526       10.4883196649        6.2769263180
  S         3.4801938602       14.1342524278        6.4846095256
  C         3.8599836734       13.2431172770        5.0182848022
  H         3.8869586483       11.0713172261        4.3665945613
  C         2.1975112555       13.0286311089        9.4934397269
  H         1.7496262336        9.3140578384        9.4501230948
  C         1.4955301876       11.0727867569       10.6346527181
  H         0.7543645161       11.4902453750        5.9221883523
  H        -0.0441929147       10.5840234015        7.1919980031
  C        -0.4313448860        9.8876688772        5.2119608413
  C         4.3020803375       13.9704848759        3.7454096485
  C         1.5759303493       12.4303297595       10.6038396315
  H         2.4686891885       14.0496683713        9.5874140742
  C         1.1525679367       10.6793515907       11.8874753364
  H        -1.2848847787       10.6413281037        5.3374589137
  H        -0.8049958952        8.8507872860        5.5287102298
  C         0.2147546430        9.9902776088        3.8398411199
  C         4.1931645882       15.3869844664        3.5090036029
  C         4.5680070207       13.1786139529        2.5332082923
  C         1.2780728395       13.1115236525       11.8965195654
  C         1.0121299006       11.8023324099       12.6807119275
  S         1.0483729134        9.2339309870       12.7478186631
  H         1.0796655799        9.2935771314        3.6866870854
  H         0.4999501061       11.0699919103        3.7647657432
  C        -0.8578712815        9.7739272301        2.7688921716
  N         3.8163031796       16.2938538479        4.4792371654
  C         4.4211913179       16.0205653947        2.2923170177
  C         4.8883806118       13.8008183552        1.3236609750
  H         4.5633181453       12.0758931980        2.6696655426
  C        -0.0513626936       14.0053261890       11.9153586105
  C         2.4109584379       13.8054900259       12.6041027492
  C         0.9098506272       11.5275284590       14.0561361045
  C         0.7701469356       10.1500284881       14.2202101508
  H        -1.5137253870        8.9049465308        3.0084347504
  H        -1.5343565703       10.5829784449        2.6592136872
  C        -0.2269985282        9.5707977055        1.4265211586
  S         3.7397791774       17.7702537902        3.8234375621
  N         4.2934554515       17.3674226604        2.3266741297
  C         4.9084143224       15.3042146616        1.1449395628
  H         5.0036569905       13.1623247044        0.4543139416
  H         0.0501905253       14.7348561216       11.1507404447
  H        -0.2085373610       14.6302995123       12.7900031315
  C        -1.3011215455       13.0605547665       11.6626597407
  H         2.8354830727       14.6634953891       12.0908935577
  H         1.9672479838       14.1959416261       13.5627996448
  C         3.5437355738       12.8581009226       13.0526054139
  H         0.7613054500       12.3191799088       14.7810552850
  C         0.2695566815        9.5263472338       15.4719018125
  H         0.2559034949        8.6074716306        1.5403118767
  H         0.5852820569       10.3162028419        1.3985923078
  C        -1.2362852381        9.7937928222        0.3108635150
  C         5.0979808351       16.0234810949       -0.0817130034
  H        -1.1937318005       12.3503865564       10.8461502768
  H        -1.5431588356       12.2979902526       12.4305285611
  C        -2.4866191781       13.8859585352       11.1981707586
  H         3.8053860919       12.2139253324       12.1933725674
  H         3.3324946562       12.2485283970       13.9298849816
  C         4.8419995780       13.6765238224       13.3615915913
  C         0.1440342690        8.1075662933       15.6867030302
  C        -0.0759880712       10.4142053117       16.6135692871
  H        -1.8692106219        8.8678856389        0.3733603948
  H        -1.9524784549       10.6157112360        0.4028349788
  C        -0.4766276555        9.8124382227       -1.0358392083
  H         5.1363106465       17.1089496809        0.0352871850
  C         5.4027605332       15.5883967296       -1.4025901466
  H        -2.1400345273       14.6890353552       10.5706134808
  H        -3.0041950615       14.3679218382       11.9994101032
  C        -3.5189952533       12.9764863889       10.5625860918
  H         5.0324913559       14.1264577414       12.3827561080
  H         4.6574123186       14.5410852447       14.0063713834
  C         6.0288483953       12.8024976706       13.6951082233
  N         0.2642124840        7.1255217874       14.6891269940
  C        -0.2254723529        7.5775256982       16.8716027362
  C        -0.4149332284        9.8524212635       17.8640710702
  H        -0.2345974067       11.5053920935       16.5262156231
  H         0.4579996167        9.2700864109       -0.9080155473
  H        -0.3260234780       10.7640259561       -1.4659026811
  H        -1.0375507764        9.2668069187       -1.8178151864
  S         5.8546258102       14.0139820731       -1.9276682758
  C         5.3895158157       16.6959041977       -2.3891121797
  H        -2.9794550265       12.6851481332        9.6139363341
  H        -3.6562143497       12.1567491275       11.2975429949
  C        -4.7992929096       13.6854956999       10.1043608586
  H         6.3089058616       12.1995223189       12.8443474253
  H         5.8467230333       12.0045570623       14.3715268477
  C         7.2545434994       13.5360544793       14.3116889289
  S        -0.0703653535        5.6879902476       15.3151003060
  N        -0.4045336020        6.1828246260       16.7940188387
  C        -0.5193786491        8.3446487980       18.0146842306
  H        -0.4604709767       10.4842670485       18.7545545077
  C         6.0088981196       14.7813653261       -3.5147486273
  N         5.8130879734       16.1387401694       -3.5521128985
  O         4.9497133049       17.7949020073       -2.2077339545
  H        -5.4476064170       13.8882321048       10.8699118925
  H        -4.6647614216       14.5647694179        9.5981061392
  C        -5.6336919127       12.7376166899        9.2471111786
  H         6.9752642791       14.1801856700       15.1422956229
  H         8.0316961454       12.8712278345       14.6679341686
  C         8.0492786059       14.3248788019       13.1965108636
  C        -0.8042427451        7.6159055959       19.1846740494
  S         6.4859381251       13.9458543858       -5.0321672777
  C         5.8314799848       16.8893092629       -4.7432782602
  H        -5.1952607039       12.6977627214        8.2474827857
  H        -5.5548434563       11.7031098625        9.6156827723
  C        -7.0972434123       13.2098582216        9.1516535381
  H         7.2875679933       14.6275230321       12.4550965017
  H         8.6815030098       13.6523995611       12.6681403597
  C         8.8420154537       15.5796944863       13.6510620311
  H        -0.4218287819        6.6045658854       19.1970279181
  C        -1.4761128851        8.0226116988       20.3796766246
  H         6.6158424439       16.4924035216       -5.4535867246
  H         6.3417034069       17.8148427370       -4.5274714554
  C         4.4803501121       16.9094143235       -5.3922526204
  H        -7.7825809679       12.8107248301        8.3620076305
  H        -7.0310409151       14.2963419669        8.8750983894
  C        -7.8111548081       13.1487025189       10.5376205050
  H         9.6718168980       15.4592431759       14.3098144120
  H         9.2411735048       16.0074030830       12.7545718194
  C         8.0048424631       16.7176394326       14.2516539375
  S        -2.1824916641        9.5873609101       20.6673087336
  C        -1.5831080229        7.0678149481       21.4379303459
  H         3.6149063156       17.1835502734       -4.7418102704
  H         4.2366258368       16.0125794063       -5.8988119530
  H         4.3813613741       17.5551499064       -6.2474663531
  H        -7.7469261099       14.1333060498       10.9980191654
  H        -8.9158937035       12.9201708338       10.3583150705
  H        -7.3859627824       12.5155920561       11.2632016161
  H         7.2357407780       17.0704758765       13.5691529467
  H         7.3246964954       16.3754115680       15.1103512162
  H         8.5718180739       17.4928073153       14.5657382959
  C        -2.7066908638        8.8847067194       22.2202365438
  N        -2.2493166777        7.6331596101       22.4697569256
  O        -1.0798564851        5.9226222403       21.4402383874
  S        -3.6314704108        9.7470638731       23.3690875554
  C        -2.5099751278        6.9345385406       23.7032625720
  H        -2.8474453218        5.9223907826       23.4243147582
  H        -3.3384480481        7.3178130616       24.3179434875
  C        -1.1860111422        6.9578508017       24.5614490639
  H        -0.5173983211        6.0907642615       24.2159334962
  H        -1.3419730389        6.7490022368       25.5479651858
  H        -0.6669312421        7.8163937578       24.2937303624
