352
i =
  H        -3.7612032495       14.5097024902       15.9928444131
  C        -3.6303124606       13.4127180200       16.2142503523
  H        -4.6132406908       12.9802110873       16.4537740125
  C        -2.6423995731       13.2394554338       17.3770232473
  C        -3.1454152415       12.6562178451       14.9822279719
  C        -3.3246558980       13.3275993067       18.7977219699
  H        -1.9799043835       12.3470660271       17.2816508056
  H        -1.9808438210       14.1188195554       17.3381712920
  H        -3.8295854196       12.7150540956       14.1537734445
  H        -2.2121262889       13.1629013388       14.6422664662
  H        -2.9835219868       11.5799967254       15.2199480425
  C        -2.6074292767       12.4161562171       19.7444288165
  H        -4.3589748910       13.0882827652       18.7498890826
  H        -3.3824185122       14.3860120469       19.1464963469
  C        -2.9435895317       12.6236231096       21.2154193767
  H        -2.5825487321       11.4015508320       19.5181856622
  H        -1.5204863724       12.6000911265       19.5926227471
  C        -1.9168180712       11.9929973971       22.1279947525
  H        -3.9606548096       12.1183669052       21.3692071001
  H        -3.0264981793       13.6191680603       21.4895404045
  C        -0.8340392252       13.0300509520       22.4108856564
  H        -2.3590106302       11.6624511301       23.0891361434
  H        -1.4868871919       11.1654025971       21.6223924483
  C         0.4058139902       12.4769581025       23.2644024422
  H        -0.4105053804       13.3350731591       21.4741785589
  H        -1.2950419673       13.8220220334       23.0204091601
  C         0.9766786127       11.2331470988       22.6688091215
  C         0.1026798017       11.8050384493       24.6064713350
  C         1.5010718160       13.6096702936       23.2184384689
  C         0.7936111329       10.1453529286       23.4712673674
  C         1.6269966671       10.8764053488       21.5219335709
  C         0.3031735020       10.4883089247       24.7526052597
  C        -0.3400558208       12.4131565013       25.7658969145
  H         1.5775925209       13.8679034320       22.1424414920
  H         1.0968298651       14.5772691478       23.6549806223
  C         2.8594764159       13.1749446412       23.7672044103
  S         1.2796994595        8.6477582740       22.7349616757
  C         1.7479742275        9.5515820840       21.3782720365
  H         1.7487279886       11.6471244715       20.8130358473
  C        -0.1383437981        9.8833228762       25.9495710628
  H        -0.2904128284       13.5108779643       25.7547875907
  C        -0.7596067655       11.8645527513       26.9664386690
  H         3.4503139070       12.5933581650       23.1220647116
  H         2.7504036801       12.7039064096       24.7661208912
  C         3.7798952283       14.3039900538       24.1148753181
  C         2.0211357859        8.8433371932       20.1155264777
  C        -0.7076193976       10.5318876475       27.0542313331
  H         0.1077903697        8.7919366785       25.9628993343
  C        -1.2719950349       12.3614065142       28.1411286121
  H         4.4349888174       13.9781110415       24.8913918265
  H         3.1805607764       15.0398267181       24.6038088394
  C         4.5058382785       15.0973313461       23.0494752473
  C         1.8774200500        7.4687858086       19.8341374766
  C         2.6284758948        9.6729105552       19.0177726242
  C        -1.1334384569        9.8709693219       28.4231975947
  C        -1.5075395890       11.2970290761       28.9719676036
  S        -1.5030835207       13.9357706848       28.8515442733
  H         5.0583188442       16.0273066667       23.4498740949
  H         3.7257543053       15.5618974608       22.3901644172
  C         5.5545512079       14.3669422066       22.1644255891
  N         1.4526796648        6.5074676500       20.7508562227
  C         2.2182859564        6.9281079875       18.6078082516
  C         2.9880325876        9.0884036525       17.7882424200
  H         2.7513022820       10.7027487338       19.1870750975
  C         0.0002968980        9.0782075944       29.1752495175
  C        -2.4115402175        9.0079265528       28.1937583064
  C        -1.8456004732       11.7394543304       30.2282580165
  C        -1.8058438368       13.1031646718       30.3475792840
  H         6.2944775845       15.0831306334       21.9602171696
  H         5.9777602047       13.5086537180       22.7350349954
  C         5.1287464710       13.7548323317       20.7956172887
  S         1.6141740327        5.0277604253       20.0729629711
  N         2.0042947474        5.5666109211       18.5756182490
  C         2.6862725391        7.6864948906       17.5055163011
  H         3.4650652472        9.6569675027       17.0048699733
  H         0.1206191618        8.1419959365       28.6703874752
  H        -0.4392866313        8.7334695945       30.1302775204
  C         1.3772480950        9.8514372875       29.2347868217
  H        -2.2918300295        7.9871988416       27.6643242537
  H        -2.8125219009        8.6944992865       29.1845037026
  C        -3.6432985256        9.7170945451       27.5155815584
  H        -2.1630357559       11.0483787525       31.0162853166
  C        -2.0139023755       13.8927864919       31.6554437113
  H         4.5299838328       14.4607391648       20.1934833702
  H         4.5000495637       12.8537700734       20.9289683610
  C         6.2956523851       13.5026191206       19.8382295798
  C         2.9568097244        7.0227940793       16.2745622684
  H         1.6931509417        9.9889572067       28.1766351296
  H         1.0655489751       10.8090696612       29.7027099192
  C         2.4196131247        9.0021706602       29.9951500815
  H        -3.4054583906       10.1322207557       26.5157037376
  H        -3.9111851236       10.6346851370       27.9277819588
  C        -4.9537531373        8.8737274726       27.3938975184
  C        -1.9505319765       15.2854343730       31.8570383154
  C        -2.3195355087       13.1764340286       32.8653126377
  H         6.0107823954       13.2210291193       18.8258407951
  H         6.7308323050       14.4465727892       19.6963250717
  C         7.2776544976       12.4862359229       20.4253239795
  H         2.6426092006        6.0190854186       16.2098978367
  C         3.3819012587        7.3885435873       15.0444039072
  H         2.9485693366        8.4110349867       29.2502733234
  H         1.9145186271        8.4289087637       30.7546696189
  C         3.4931666260        9.8948126523       30.6622635518
  H        -4.6949176459        7.8840850338       26.9540234421
  H        -5.2420242001        8.5419409912       28.3681884020
  C        -5.9865798071        9.7223838289       26.6213564243
  N        -1.7003510834       16.1903152892       30.8422471150
  C        -2.1361382354       15.9253756555       33.0788586563
  C        -2.4281450915       13.7046089907       34.1343879559
  H        -2.2085746411       12.0905197682       32.9201008786
  H         6.7825025209       11.6175832239       20.7817309891
  H         8.0925105757       12.2485738319       19.7482940624
  H         7.8288092875       12.9494383661       21.2103245554
  S         3.9119495029        9.0084618140       14.5847483188
  C         3.4479289750        6.4227280456       13.9505826567
  H         3.3180863775       10.9208286066       30.2962245401
  H         3.3804734723        9.9973329175       31.7494616938
  C         4.9155264773        9.4844572080       30.3901994087
  H        -5.4606355222       10.2524519428       25.7656653521
  H        -6.4543333352       10.4962185019       27.2303488854
  C        -7.0699267594        8.8935546815       26.0204608915
  S        -1.7295766048       17.7105583655       31.4630491764
  N        -2.0925153115       17.2951145020       33.0438129013
  C        -2.4580742443       15.2077250864       34.2516905517
  H        -2.6288093082       13.0434847576       34.9602104764
  C         4.0774886224        8.3949825395       12.9398956347
  N         3.9251433622        7.0360818508       12.8511017748
  O         3.0635825961        5.2721906905       14.0434272436
  H         5.6369332135       10.3494562800       30.7477723686
  H         5.1013367035        9.5047779536       29.3506547865
  C         5.2353203314        8.1633396694       31.1489256718
  H        -6.6037259138        8.2222718944       25.3191391943
  H        -7.6000136498        8.3009335132       26.7456684499
  C        -7.9299873677        9.8874688112       25.2374660701
  C        -2.8723470270       15.9133615701       35.4177274647
  S         4.4940743028        9.2546730375       11.4597741484
  C         4.0323725485        6.3919151949       11.5419967362
  H         6.0233156481        8.2890250704       31.9649518697
  H         4.2991392697        8.0447796897       31.7577174912
  C         5.4887861596        6.8409976872       30.3479836745
  H        -7.4521915007       10.1330847801       24.2862173817
  H        -8.0128347795       10.9216953089       25.7983035412
  C        -9.2567427688        9.2707499188       24.9256536685
  H        -2.6671573623       16.9635177769       35.3615128235
  C        -3.5327180840       15.5289400878       36.5386843011
  H         4.9408998583        6.7392486700       11.0240815064
  H         4.3436616034        5.3618672706       11.8034534806
  C         2.7405771430        6.4301196183       10.6927093404
  H         4.9815085682        6.8356606734       29.3917250703
  H         5.0543078656        6.1423263838       30.9472904429
  C         6.9439546532        6.5586701231       30.2402758852
  H        -9.4772193113        9.7098330466       23.9647293103
  H        -9.2273064591        8.1898030667       24.5751855320
  C       -10.3610755087        9.5777026834       25.9426734240
  S        -4.1267888411       13.9182144011       36.9388996919
  C        -3.7335974762       16.6302583005       37.5518235804
  H         2.0802756706        5.5089845009       10.9252756012
  H         2.2156991468        7.3290857218       10.7235345103
  H         3.0311154821        6.2327934631        9.6156309259
  H         7.5220654019        7.4009249368       29.9341572023
  H         7.2174492592        5.7402071138       29.5899724848
  H         7.2379416779        6.1073601532       31.2083131264
  H       -10.1525090151        9.1125041162       26.9346600495
  H       -11.3245833185        9.2768178898       25.5330471457
  H       -10.2564418500       10.7075588343       26.1296707694
  C        -4.5741632051       14.6492166498       38.5166797495
  N        -4.3656861668       16.0146078669       38.5705636238
  O        -3.4688075806       17.8326149448       37.5749446322
  S        -5.3381048825       13.7059346652       39.8767493842
  C        -4.5360992921       16.8410891201       39.7435971575
  H        -4.7823977985       17.9118895632       39.5359449535
  H        -5.3494549532       16.6000748411       40.4220751896
  C        -3.3106580084       16.7787173806       40.6301921658
  H        -3.5704438150       16.2486565418       41.4847013093
  H        -2.4798569875       16.1775102316       40.2512597975
  H        -2.8907872182       17.7242538378       40.9904633873
  H         6.8637860252       11.4051125520        3.7425529871
  C         7.3828737018       10.4721379851        3.9007632673
  H         6.6407697005        9.8068519538        4.1850404530
  C         8.4573977040       10.5016657108        4.9937739240
  C         7.9552050985       10.0418945488        2.6434975529
  C         7.9501717331       10.5417254725        6.4461373078
  H         9.1493927055        9.6988837807        4.7961540180
  H         9.0911977905       11.3275565577        4.7600925872
  H         9.0381381628        9.9127811240        2.6629490008
  H         7.7519723674       10.7017798615        1.8365839961
  H         7.4829436710        9.1369605730        2.3824273464
  C         7.3693590761        9.1992125198        6.9269913942
  H         8.7319259960       10.8949293972        7.0830146045
  H         7.2578250913       11.3961987320        6.4317298393
  C         6.5275753434        9.2683054433        8.2851008105
  H         8.2256179302        8.5548634504        6.9414508083
  H         6.8202208880        8.7658434709        6.1311650020
  C         5.2562493823       10.1863832882        8.0571874754
  H         7.1590907808        9.8638602582        8.9283819945
  H         6.3016789689        8.2848129343        8.7780778737
  C         4.0130702529        9.5530319610        7.3056470592
  H         4.8577314620       10.5926888757        8.9670914662
  H         5.5180760384       11.0775550837        7.5313972303
  C         2.7700060146       10.4492154354        7.2417715957
  H         3.8775003166        8.4953127686        7.4613284615
  H         4.4362724509        9.5769850194        6.2955267730
  C         3.1470317955       11.7665290631        6.6465893554
  C         2.3076889486       11.1414601229        8.4623753985
  C         1.6123661235        9.7273075993        6.5727978157
  C         2.8684110087       12.8935665518        7.4444578142
  C         3.7516990732       12.1218497408        5.4738281843
  C         2.3223877912       12.4654264077        8.6576296356
  C         1.8760350053       10.4188607206        9.5854534218
  H         2.0351250078        8.8635802634        5.9777989726
  H         0.9969488375        9.2415819109        7.3137671470
  C         0.7268465188       10.5962908080        5.6544359489
  S         3.2527114964       14.3616834615        6.7314805283
  C         3.8625992535       13.4965460379        5.3324526736
  H         3.9603680175       11.3856934638        4.7538653405
  C         1.9153110625       13.0744391204        9.8574128968
  H         1.9216643812        9.3362948561        9.4382378482
  C         1.4581674693       10.9467497729       10.7748086761
  H         1.2600169242       10.9840111681        4.7576699597
  H         0.3024092425       11.4143618825        6.2287750107
  C        -0.4328640836        9.7507880308        5.0640257337
  C         4.2974050873       14.1990127984        4.0166273238
  C         1.4430522139       12.3490510828       10.9379519063
  H         1.9378299669       14.1209591785       10.0646552845
  C         1.0628408670       10.5106216938       12.0223352012
  H        -0.9427168808        9.3538543295        5.8979546305
  H        -0.0487941465        8.8539868926        4.5170904639
  C        -1.2605968396       10.6065690348        4.1298529924
  C         4.2419863376       15.6000173215        3.8151137597
  C         4.6446891809       13.3925175088        2.7580458636
  C         0.8921654346       12.9463207611       12.2437698163
  C         0.7094827766       11.5647340291       12.8556580149
  S         0.6676276504        8.9558225951       12.5792301138
  H        -0.7182065485       11.2582109411        3.4880564900
  H        -1.9019928398       11.3150563437        4.7015034986
  C        -2.1392009423        9.8098967488        3.1424497007
  N         3.9170807340       16.4666526671        4.8262964488
  C         4.5917701501       16.1764169489        2.6390934089
  C         4.9234447854       14.0075450749        1.5467912512
  H         4.7082366029       12.2850489048        2.8067810928
  C        -0.4175459997       13.7051684377       12.0629926994
  C         2.0224708269       13.7623483079       13.0332217320
  C         0.3538262612       11.0812503855       14.1077944966
  C         0.2875488664        9.7073720533       14.1102837905
  H        -2.7038903192        9.0705184616        3.7356102653
  H        -2.9016587982       10.4862873454        2.7417651995
  C        -1.2532170024        9.2884222553        1.9664607380
  S         4.1295525662       17.9966001939        4.2843028076
  N         4.5506746617       17.5716699590        2.7485137274
  C         4.8474037594       15.4836742103        1.4332495427
  H         5.1824761905       13.3871119915        0.6875759653
  H        -0.2873897022       14.6924498174       11.5178522636
  H        -0.8082138485       13.9583768511       13.0776717754
  C        -1.5787033660       13.0155342241       11.3853814566
  H         2.2399538109       14.7531857137       12.5511051341
  H         1.5226540297       13.9179080151       13.9596049796
  C         3.3699499053       13.1081071609       13.1751327741
  H         0.1293270605       11.8198402931       14.8238227233
  C        -0.2132083132        8.8791236294       15.3110500710
  H        -1.7979946521        8.4218982659        1.5126082954
  H        -0.2213504273        8.9566533957        2.2273466594
  C        -0.9388003965       10.2023759801        0.8326109427
  C         4.9746974208       16.2309415581        0.1990016338
  H        -1.0974175761       12.7247396472       10.4283236107
  H        -1.8714958127       12.1085499140       11.8421557202
  C        -2.8225211510       13.9019711189       11.1900206136
  H         3.6884210406       12.6854877459       12.2144181467
  H         3.4631279509       12.2369581359       13.8535204279
  C         4.4365417126       14.0397026775       13.6098693238
  C        -0.3976966128        7.4457015174       15.3484946088
  C        -0.3438394356        9.6142241091       16.5511962218
  H        -1.9372348153       10.4559780924        0.4032196247
  H        -0.4384610722       11.0018620708        1.2538194279
  C        -0.0888941656        9.6106129060       -0.2583750100
  H         4.6932789398       17.2558334707        0.3673425515
  C         5.3751171702       15.8880567847       -1.0763055051
  H        -2.3632467041       14.7936962163       10.7434059947
  H        -3.3657236568       14.2290707625       12.1319170531
  C        -3.8173316813       13.1550417108       10.2546292162
  H         4.8738941159       14.5424273265       12.7562782454
  H         3.9013551597       14.8158663531       14.1776938066
  C         5.4630791326       13.4295504053       14.5085957606
  N        -0.1676275969        6.5637090448       14.2800073031
  C        -0.7196686599        6.7808227861       16.5226471169
  C        -0.6245596690        8.9149164425       17.7219519627
  H        -0.0712937475       10.6035268722       16.5881718988
  H        -0.2595419888       10.2233335756       -1.1094792527
  H        -0.4494685677        8.5595956797       -0.4981844270
  H         0.9964433875        9.5906155345        0.0614978171
  S         5.8585004647       14.3037514132       -1.5868793258
  C         5.3520670165       16.9507953367       -2.0969986425
  H        -3.4253674123       13.2977901674        9.2321584730
  H        -3.9391764734       12.0875782228       10.4476127571
  C        -5.2406856649       13.8492431030       10.2937890570
  H         5.8205662983       12.6818162931       13.8972416951
  H         5.1111037303       12.9044395612       15.4273978221
  C         6.6250171303       14.3735040936       14.8741467976
  S        -0.2701518339        5.0527517452       14.8695420957
  N        -0.6917779237        5.4510902300       16.3951383608
  C        -0.9516658125        7.4523281535       17.6907628881
  H        -0.6903476414        9.4675363540       18.6688366239
  C         5.8470953716       15.0692514093       -3.2128631805
  N         5.8024535543       16.4299491964       -3.2523444240
  O         5.1336123470       18.1502713577       -1.8731103727
  H        -5.7425615672       13.7581530059       11.2954815209
  H        -5.2119176511       14.9194869581       10.1817538726
  C        -6.1438249567       13.3759401474        9.1090776781
  H         7.4362321625       13.7625688986       15.3779093883
  H         7.0142287614       14.6354291605       13.8894381143
  C         6.3105987681       15.4969862557       15.8526446603
  C        -1.2679164353        6.6920317783       18.8692125373
  S         6.3271632214       14.1112550060       -4.6383294538
  C         5.6964035586       17.2121423438       -4.4884590844
  H        -5.8212313029       13.9215162241        8.1617600490
  H        -6.0435910540       12.2576310912        8.8185655044
  C        -7.4869828967       13.8325865274        9.3146048100
  H         5.9018002800       15.2040245750       16.7757508592
  H         5.5003641206       16.0900994496       15.4276206529
  C         7.4359144764       16.4327504000       16.1307259921
  H        -1.1094960239        5.6439180654       18.8351444962
  C        -1.6812607998        7.0957086623       20.1163167609
  H         6.4137836112       16.8364602295       -5.2021254341
  H         6.1094102795       18.1961248080       -4.2273256958
  C         4.2676923029       17.2339499848       -5.0223802613
  H        -8.0670449539       13.8199085641        8.4405776920
  H        -7.4369967032       14.8785766251        9.6200516386
  C        -8.1869718287       12.9223909757       10.3065713929
  H         7.1189704726       17.3687101244       16.5830661852
  H         8.0521941601       15.8716464516       16.8654973173
  C         8.2353006652       16.7956293614       14.8656624099
  S        -2.2246082171        8.6463058066       20.6374946787
  C        -1.9273050662        6.0633186682       21.2210244461
  H         3.6378616707       17.6881733998       -4.2973318365
  H         3.8634077043       16.2230168551       -5.2109325114
  H         4.1776026398       17.8699805232       -5.9792933761
  H        -9.2333585024       12.9824509882       10.1116130563
  H        -7.8135531465       11.9546799759       10.2441926674
  H        -7.8811014743       13.2063298552       11.3032388292
  H         8.6815327197       15.9062204381       14.4220106112
  H         7.5244989782       17.3741975357       14.2726270842
  H         8.9893882506       17.4927430338       15.2232779649
  C        -2.5290219857        8.0074499525       22.2387810654
  N        -2.3602892160        6.6597853264       22.3313427724
  O        -1.6323539860        4.8426623113       21.1292627791
  S        -3.2589137492        8.9049074546       23.6287362712
  C        -2.3631160614        5.9132751152       23.6029929058
  H        -2.5581952466        4.8573230451       23.3217955933
  H        -3.2495213843        6.2062416238       24.2215473018
  C        -1.1030819381        6.0936988940       24.4308030734
  H        -0.1960598052        6.3784745861       23.9322977990
  H        -0.8450132582        5.0942105110       24.8071812021
  H        -1.2980484530        6.7994328306       25.2812467307
