352
i =
  H        -1.6475886723       14.2076570210       14.6448357272
  C        -2.4210730067       13.8337883728       15.2417201709
  H        -3.0584470978       14.7134014204       15.4106849480
  C        -1.7906869431       13.2602516673       16.5448125995
  C        -3.1370395908       12.6406010695       14.5362427367
  C        -2.5271770745       13.7450378843       17.8810611272
  H        -1.5907003968       12.1380774087       16.5709257263
  H        -0.7477842125       13.7249106958       16.6310292123
  H        -2.4678383709       11.8114943924       14.3111608968
  H        -4.0421502031       12.2136068458       15.0815991197
  H        -3.3874467933       13.0023624245       13.5700343357
  C        -1.6181870675       13.4292485642       19.0838302078
  H        -3.5334393678       13.2546205549       17.8548586822
  H        -2.7620671206       14.8452429028       17.7415168556
  C        -2.3650146269       13.1511286302       20.4317046061
  H        -0.9634430106       12.6287349931       18.7084711449
  H        -0.9616586830       14.2669342590       19.3017031529
  C        -1.5261546716       12.6021000254       21.6730599349
  H        -3.1649771275       12.4628970009       20.1397973906
  H        -2.9141385120       13.9982042573       20.9048428550
  C        -0.3778851564       13.6040783427       22.0758278372
  H        -2.2463548014       12.3764581053       22.5363714843
  H        -1.0928707734       11.6374605861       21.4194204327
  C         0.8284688373       12.9985481628       22.9225691553
  H         0.0496380435       14.0359733014       21.1566998670
  H        -0.7700566512       14.5161454996       22.5323721396
  C         1.2536979972       11.6992961910       22.2577570770
  C         0.4643213720       12.3097821420       24.1678459234
  C         1.9801688997       14.0927318375       23.1610060151
  C         1.0337892706       10.6014620054       23.0238714789
  C         1.7876553173       11.3312269196       20.9905669176
  C         0.5425933741       10.9462545790       24.2604285572
  C         0.0465120136       12.9403716431       25.3835745517
  H         2.2114850027       14.5434714630       22.1423345508
  H         1.5656441006       14.9478314477       23.7637402830
  C         3.2659841713       13.5582712450       23.7231028467
  S         1.4568904613        9.0783891032       22.3091846556
  C         1.9501254311        9.9693183540       20.8633166993
  H         2.1247504174       12.0937958685       20.3695170911
  C         0.2739230889       10.3481038643       25.4571386184
  H        -0.1111524398       14.0071321187       25.3626941241
  C        -0.1473390107       12.3238333956       26.5581136984
  H         3.6298223937       12.6640933587       23.1948148228
  H         3.0528969960       13.0801600882       24.6423522158
  C         4.2728575653       14.6500839143       23.9565128655
  C         2.3801052794        9.2856093382       19.6242291772
  C        -0.1293122685       10.9641890790       26.6538371665
  H         0.2607521133        9.2448011516       25.4217311133
  C        -0.5701267158       12.7706132256       27.8175041005
  H         4.8984541237       14.2662088397       24.7367624896
  H         3.7967195536       15.5520419647       24.2502204732
  C         5.2167734524       14.9937914007       22.6918176992
  C         2.5764282377        7.9096411621       19.4948971542
  C         2.9349800009       10.1066512533       18.5753427905
  C        -0.5676086720       10.2949426158       27.8942627989
  C        -0.7732545638       11.6566109997       28.5927491195
  S        -0.7041800828       14.3047854944       28.5222953737
  H         5.7350758489       15.9079005868       22.8878536890
  H         4.6462070809       15.2136885987       21.8069225297
  C         6.3300765592       13.9763804256       22.1911945646
  N         2.4699381619        6.8886390549       20.4465441962
  C         2.9181869023        7.3115801006       18.2694160987
  C         3.3283200994        9.5597060058       17.3700621977
  H         3.1649316139       11.1517028706       18.7946182796
  C         0.5185080154        9.4568353376       28.5919731551
  C        -1.9372646948        9.6045462502       27.6459119532
  C        -1.1097040962       12.0685707887       29.8684645370
  C        -1.1296756942       13.4359029511       29.9871908330
  H         7.2957654109       14.2825272045       22.4599332575
  H         6.2180884409       13.0497306535       22.7226707191
  C         6.2696358860       13.7171780880       20.6200606605
  S         2.6386700177        5.4479399897       19.7595182272
  N         2.8953843633        5.9056979532       18.2192797151
  C         3.1679709079        8.1158180098       17.1063207927
  H         3.5827516238       10.2556418090       16.6172572107
  H         0.8127041606        8.7311571405       27.8817346832
  H         0.0974018925        8.8526182334       29.3569444641
  C         1.6565265901       10.2416526342       29.1754156634
  H        -1.8164670530        8.7831819737       27.0243572925
  H        -2.2754273433        9.2280753993       28.6121771010
  C        -3.0359712121       10.4504191613       27.1993388084
  H        -1.3491875586       11.3398826483       30.6452092915
  C        -1.5864223528       14.0840398645       31.2403140165
  H         6.0012471784       14.6889964305       20.1516658544
  H         5.5356227105       12.9797666609       20.4525239134
  C         7.6229249583       13.2724828487       19.9847533260
  C         3.3795382909        7.5627496408       15.8737490224
  H         1.8356820883       11.0955181978       28.5111247266
  H         1.2215339912       10.5520603895       30.0986665333
  C         2.8566802819        9.3127957218       29.4893583197
  H        -2.7702748215       11.0429598708       26.3237982999
  H        -3.2012843667       11.3131353595       27.7645276217
  C        -4.3676373304        9.7389988590       26.8702266977
  C        -1.5729025696       15.4613916836       31.4209378912
  C        -1.8532393648       13.2674226710       32.4319013669
  H         8.4212036262       13.8580384860       20.3682167331
  H         7.8400449981       12.2899362072       20.2233153057
  C         7.5997024461       13.5062009986       18.4967820456
  H         3.4748015675        6.5298269288       15.8908733011
  C         3.7052232684        8.1191751329       14.6394606849
  H         3.0292710158        8.5685195785       28.6991643786
  H         2.7200320959        8.7179199358       30.4049335884
  C         4.2153675211       10.0463064698       29.6046069741
  H        -4.2786077687        9.1866227159       25.9781148522
  H        -4.6898214824        9.1023375758       27.6856411086
  C        -5.4817074246       10.7767640152       26.6619186720
  N        -1.3052966862       16.4311432539       30.4167846963
  C        -1.7224124852       16.0763724328       32.6580394176
  C        -2.0986667660       13.8398607942       33.6924297828
  H        -1.9728208537       12.2124705043       32.3610482130
  H         8.2897946193       14.3462387219       18.2286353312
  H         7.9812165900       12.6685838373       18.0240226138
  H         6.6493350003       13.7624748535       18.0279203992
  S         3.8275995476        9.8252934016       14.1140661514
  C         4.0075226664        7.1584350870       13.5755739228
  H         4.2455225338       10.6729849681       28.7160667224
  H         4.2678764761       10.6931630411       30.4207131433
  C         5.4135930553        9.1092236506       29.5124002639
  H        -5.3332035181       11.4052835728       25.7559803722
  H        -5.6643286698       11.4198803408       27.5023958249
  C        -6.7552653391        9.9962288386       26.5594201310
  S        -1.3792952789       17.8716362873       31.0977475011
  N        -1.7341102514       17.4525798953       32.6227588831
  C        -2.0759870990       15.3171542094       33.7998339598
  H        -2.2560836252       13.2152385588       34.5720364584
  C         4.3765941850        9.1653286111       12.6382779336
  N         4.4412037773        7.7800722672       12.4865826581
  O         3.8638466127        5.9218106190       13.7184887123
  H         6.3340767901        9.6716067674       29.5968562369
  H         5.2925591640        8.6863336059       28.4916082076
  C         5.3447908954        7.8761632112       30.3923027130
  H        -6.5925495496        8.9442988725       26.3879760830
  H        -7.2033929431       10.1057522917       27.5607560917
  C        -7.7069277301       10.6481391895       25.4851197100
  C        -2.3645294351       16.0699880712       35.0039607024
  S         4.8071556268       10.2577421084       11.4156472285
  C         4.6757834116        7.1396836461       11.1640804941
  H         5.0997831652        8.0797110911       31.4416510352
  H         4.5761788831        7.2180421696       30.0264302621
  C         6.6259935820        7.0027180675       30.4007579634
  H        -7.1470421435       10.6783248150       24.6038291802
  H        -7.9586234324       11.6883647654       25.6726468563
  C        -9.0187365358        9.8958565745       25.2315284432
  H        -2.1624612687       17.1198234815       34.9967366044
  C        -2.7851024848       15.6648987548       36.2757590025
  H         5.2603190168        7.7573370129       10.4808582342
  H         5.2009980246        6.2228021322       11.3655620724
  C         3.3580428789        6.7714341862       10.3929281594
  H         7.4693760143        7.7125222225       30.5872430538
  H         6.8744349712        6.5833647588       29.3825779361
  C         6.5164747699        5.8645016293       31.4088010055
  H        -9.5113376838       10.2977524959       24.3960401156
  H        -8.8607200401        8.7554407964       25.1560215001
  C        -9.8693165219       10.1737578674       26.4769499390
  S        -3.2503148359       14.1645221019       36.8221841407
  C        -3.0516722607       16.7319361942       37.2490041659
  H         3.0748760636        7.4918130952        9.5852044334
  H         3.5299007962        5.9434582320        9.7947238042
  H         2.5466080812        6.6482938748       11.1100854562
  H         7.4786420251        5.8255817605       31.8876179197
  H         6.4612009485        4.9099705351       30.8271588970
  H         5.5815109133        5.9323501967       32.0662039743
  H       -10.7915170517        9.5153999409       26.4870050313
  H       -10.1210744828       11.2082440637       26.3796213558
  H        -9.3796788091        9.9984509034       27.3735116879
  C        -3.6115281381       14.8716910544       38.4287432023
  N        -3.6442193901       16.1753031554       38.3333844571
  O        -2.7238188778       17.9004472932       37.1289196044
  S        -4.8476399542       14.2361512799       39.5679463157
  C        -3.8846733030       17.0638324978       39.4947911218
  H        -3.9115100704       18.1483014568       39.2069922984
  H        -4.8460811847       16.8948120207       39.9510106441
  C        -2.7557314174       16.9072661370       40.5033841293
  H        -2.4455021402       17.9071103083       40.8676216864
  H        -3.0404890865       16.3324462091       41.4128483678
  H        -1.8040515346       16.3302745078       40.1598844521
  H         6.8614291529       11.9384344396        3.5091101608
  C         7.3232563196       10.9352953308        3.4683783913
  H         6.4046308922       10.3598606805        3.6404813056
  C         8.4032353752       10.6565735016        4.5212099434
  C         7.8011065279       10.5841952535        2.1438090794
  C         7.9276468639       10.5923032849        6.0148652941
  H         9.1238161751        9.8258518335        4.3164281468
  H         9.1079479354       11.4979781088        4.4786114585
  H         7.0207867918       10.3111378506        1.4420332990
  H         8.4136480931        9.7621211346        2.1564488577
  H         8.3791914632       11.4450328746        1.7597481614
  C         7.3120162506        9.2260899503        6.3244046541
  H         8.7915061220       10.7126735118        6.6811853162
  H         7.2404047005       11.3845410683        6.1812119355
  C         6.5069909762        9.3434215128        7.6263100821
  H         8.0695097711        8.4999419065        6.4112654280
  H         6.6949805654        8.9239817330        5.4883088398
  C         5.2213732849       10.2284314524        7.6007406365
  H         7.1734041496        9.8364706040        8.3391405198
  H         6.2554401840        8.4054928982        8.1131160173
  C         4.0922196058        9.5750008828        6.7965351622
  H         4.9701263248       10.3199884354        8.6009327439
  H         5.5330602938       11.1320966932        7.1999695335
  C         2.8900420105       10.4625223752        6.5890648682
  H         3.8467661818        8.6158861531        7.1875203203
  H         4.6315211880        9.2804112313        5.9039548873
  C         3.2456632364       11.8750493507        5.9151279755
  C         2.5419342773       11.1742802454        7.8207054112
  C         1.8068679351        9.7471087753        5.7260816399
  C         3.0296054010       12.9662298100        6.7308735125
  C         3.7935853533       12.1951309945        4.6521129713
  C         2.6408979704       12.5251307706        7.9798172947
  C         2.0392647191       10.5962136852        8.9525302991
  H         2.1767026775        8.9509238567        5.1125847474
  H         1.2724614548        9.1476985099        6.4861261019
  C         0.7708174760       10.7684255583        5.2173380303
  S         3.4205194007       14.4435344039        6.0523889857
  C         3.8209473382       13.5952223157        4.5607613081
  H         4.0974401373       11.3521671492        4.0164383003
  C         2.2791835044       13.1334477262        9.0797522496
  H         1.8386392752        9.5525289210        8.8372831009
  C         1.7117921926       11.1616151523       10.1456753408
  H         1.2331496478       11.3695213078        4.5275068766
  H         0.2691728422       11.4817389078        5.9854713080
  C        -0.3548573382       10.0044130698        4.4916424516
  C         4.2116457161       14.3829133613        3.3546507363
  C         1.8455690179       12.4897224316       10.2286079159
  H         2.4176148579       14.2189243362        9.1327246517
  C         1.2517771525       10.7174332982       11.3434192120
  H        -1.3114039308       10.5059780447        4.7159534407
  H        -0.6338755625        9.0738396671        4.9094853532
  C        -0.0644968940       10.0635723028        2.9527194747
  C         4.3438774660       15.7844829150        3.1791480371
  C         4.8655030286       13.5763023595        2.3242068698
  C         1.4872252861       13.1611548062       11.5433855870
  C         1.1265176436       11.7459017987       12.2271387275
  S         0.9897867744        9.1649493438       12.0468815005
  H         0.6409552010        9.2438480061        2.6957711303
  H         0.3676800030       11.0419086959        2.7260732204
  C        -1.3358643200        9.8906533372        2.1326240793
  N         4.0666595008       16.7475179536        4.1824053621
  C         4.8780810278       16.3540345736        2.0466957846
  C         5.3339007424       14.1746706865        1.2215544806
  H         4.9859910243       12.5203837533        2.4685265339
  C         0.2701322779       14.0913343302       11.4449512112
  C         2.7847950832       13.8656553445       11.9116355080
  C         0.6998630441       11.3089205330       13.5115519883
  C         0.6298597596        9.9497721746       13.6295776953
  H        -2.0831091913        9.6263050401        2.8003913224
  H        -1.6760934401       10.7617008703        1.5912647599
  C        -1.1692721782        8.7565946633        1.1079229400
  S         4.2604869106       18.2251031980        3.5400273863
  N         4.7956041604       17.7179031608        2.0977008113
  C         5.3135114280       15.5765744582        0.9706783708
  H         5.7701054357       13.5571505377        0.4669757469
  H         0.4848010127       14.8114899064       10.6131651880
  H         0.1921133440       14.7200878865       12.3284501593
  C        -1.0350642259       13.3582040864       11.0876848783
  H         3.5932448743       13.3365521599       11.4152847072
  H         2.8394250668       14.9293130836       11.8149369035
  C         3.0648452166       13.5635253939       13.3551162735
  H         0.5270379084       12.0466542485       14.2587705543
  C         0.1919406815        9.2437825825       14.8669755584
  H        -2.1702530446        8.4485817812        0.6620948669
  H        -0.7059544203        7.8697502964        1.5892181417
  C        -0.0818865400        9.0579868024        0.0823386525
  C         5.6341999785       16.2481891297       -0.2539689173
  H        -0.8377834194       13.0346372232       10.0851631595
  H        -1.1674292500       12.4912418958       11.7793146840
  C        -2.3240956745       14.3076538635       11.0387626743
  H         3.1531626226       12.4736110885       13.5437106285
  H         2.1574543339       13.8512320089       13.9866522191
  C         4.3457229738       14.1433160843       13.9309057862
  C         0.1250924263        7.8172776362       14.9280592671
  C         0.1044945298        9.9414768985       16.1340223261
  H         0.6825982514        9.7056057621        0.5649111614
  H         0.4186434864        8.1397766917       -0.2225511952
  C        -0.7063969518        9.7562781202       -1.1235873365
  H         5.6235979988       17.3322869480       -0.1746037827
  C         5.7672877115       15.7172952410       -1.5891208158
  H        -2.2759306489       14.9101738007       10.1344811586
  H        -2.4202148528       14.9190469778       11.9098656592
  C        -3.5887713172       13.5286446703       10.7774635678
  H         4.6918096262       14.9337649771       13.2357796518
  H         4.0549661792       14.6497053149       14.8135729446
  C         5.3558356153       13.1069071083       14.1698015251
  N         0.3876682309        6.9634148552       13.8724776226
  C         0.0305476236        7.1263726970       16.1145419113
  C        -0.1487334406        9.2727935967       17.3023045905
  H         0.2815027198       10.9732883942       16.1639913546
  H        -1.1198389463       10.7611215293       -0.8546469990
  H        -1.5532752056        9.1734363287       -1.5189193499
  H         0.0246571931        9.9844310495       -1.9120956232
  S         5.7440253988       14.1123401083       -2.0051142932
  C         5.9293363907       16.6835923594       -2.7503404827
  H        -3.4146820871       12.7922151122       10.0401890266
  H        -3.9214026414       13.0676512681       11.6711871876
  C        -4.7646490977       14.2959327976       10.2025979217
  H         5.1893608842       12.2695555666       13.5036937939
  H         5.1295903193       12.6461343764       15.1756479933
  C         6.7839618381       13.6673505371       14.1332975145
  S         0.3999359011        5.4759180920       14.3717540001
  N        -0.0092148901        5.7501218704       15.9449302807
  C        -0.2281114876        7.7627143955       17.3442184234
  H        -0.2159045212        9.8592337477       18.1746652303
  C         5.9962101774       14.6344042995       -3.6807228578
  N         6.1046996644       15.9460958510       -3.8746892224
  O         5.8443041434       17.9428011758       -2.6662702452
  H        -5.2795946889       14.8867184921       11.0443315164
  H        -4.4302236929       15.0461745158        9.4842867730
  C        -5.6723630739       13.3368475787        9.4839854739
  H         7.4289132519       12.7600417821       14.2134641066
  H         6.9206176815       14.0867390166       13.1595121703
  C         7.1301261587       14.4705352251       15.3575145528
  C        -0.4573312178        6.9644314723       18.4984871214
  S         6.3920264142       13.5692053266       -5.0011525249
  C         6.1290027791       16.6482556221       -5.1433272518
  H        -5.0726540640       12.9158892008        8.7079648035
  H        -5.9929712480       12.5260778773       10.1688121273
  C        -6.9651736816       14.0396269718        8.8203383595
  H         7.6713505644       13.8534295191       16.0682824883
  H         6.2484257526       14.6537407780       15.8972589700
  C         7.8835723597       15.8658618154       15.1724267626
  H        -0.1229788275        5.9012210965       18.5030205243
  C        -0.9337471244        7.3750558420       19.7447713909
  H         6.7514894197       16.1737426334       -5.8515132669
  H         6.5693639529       17.5910833908       -5.0514441247
  C         4.7004565705       16.7869091874       -5.6394816648
  H        -7.5003094559       13.4208571223        8.1672529545
  H        -6.6857277199       14.9403704313        8.2753242276
  C        -7.9342281338       14.3165554997        9.8941838100
  H         8.1210453120       16.3027613106       16.1681925547
  H         8.9012672602       15.5573251249       14.7519628559
  C         7.1661898632       16.7872675689       14.2434477296
  S        -1.4879211248        8.8479270230       20.1968352465
  C        -1.0187801219        6.2096076521       20.6848050866
  H         4.6961697162       17.7601500376       -6.1946725613
  H         4.0191293571       16.8637209495       -4.7630360040
  H         4.4072284914       15.9741614017       -6.3016642923
  H        -8.8755726976       14.7258404188        9.5068002362
  H        -8.2934378818       13.3427652338       10.2848530666
  H        -7.6048824421       15.0287457968       10.7012476902
  H         6.2165547064       17.0884837577       14.6608435632
  H         7.6700687065       17.7250236144       14.1277842073
  H         7.0630624360       16.2935117721       13.2890358054
  C        -2.0730204348        7.9951048749       21.7188185241
  N        -1.6891270459        6.6937548528       21.7710033902
  O        -0.4199963774        5.1710491006       20.6298294791
  S        -2.7406231849        8.6880975386       23.2080939023
  C        -1.6073497222        5.9236770593       23.0159578289
  H        -1.7346410127        4.8681007236       22.7191413742
  H        -2.4428529656        6.0086739186       23.7422417885
  C        -0.3558851092        6.0718382387       23.7205976941
  H        -0.2492704087        5.5126442923       24.6508172231
  H        -0.2169924811        7.1673770806       23.9078657564
  H         0.4655505557        5.6946141745       23.1038176706
