352
i =
  H        -2.6957332459       15.2345592553       16.1706258733
  C        -3.0803200653       14.2599246959       16.4936520503
  H        -4.1416860538       14.2820444167       16.7921505354
  C        -2.2023516970       13.7176940142       17.6493872082
  C        -3.0405503035       13.3663300546       15.2387858459
  C        -2.6948101946       13.9133070452       19.0478468241
  H        -2.0463879868       12.6776076381       17.4595935206
  H        -1.2988089976       14.2853332613       17.5134197941
  H        -3.5384542271       12.4544705187       15.3141984649
  H        -3.5716809508       13.9777030159       14.4612535116
  H        -2.0302681280       13.1343914460       14.8414617882
  C        -1.8372697146       13.2096692697       20.0633556063
  H        -3.7349040599       13.5949397871       19.2936166610
  H        -2.7013693836       14.9772109432       19.1764541526
  C        -2.4046066383       13.3609327249       21.4990575963
  H        -1.7222907379       12.1731332380       19.7845704265
  H        -0.8890218298       13.6894389225       19.9975745924
  C        -1.3437003868       12.8985699516       22.5189470316
  H        -3.3252708783       12.7884568442       21.6490537759
  H        -2.7095171931       14.4124666790       21.7614107077
  C        -0.0629791793       13.8194391030       22.6139924639
  H        -1.7766332434       12.7954919104       23.5220426873
  H        -1.0090201593       11.9817936657       22.1612147147
  C         1.1042998311       13.2105719929       23.3739190763
  H         0.2702418301       14.1155854994       21.6368846930
  H        -0.3019602203       14.7040259832       23.1963511249
  C         1.6548622796       11.9402449342       22.6446569185
  C         0.7211174206       12.5095522489       24.6011936734
  C         2.3345792832       14.2081879617       23.5279552625
  C         1.5217811065       10.8434910371       23.4668394291
  C         2.1413297730       11.6265580988       21.3852495878
  C         0.9927866268       11.1997937234       24.7519479013
  C         0.2733579652       13.1053124776       25.7905269362
  H         2.6286067253       14.5759914761       22.5233605133
  H         2.1052862074       15.1590826389       24.1526602006
  C         3.6002246829       13.4801765231       23.9818525040
  S         2.1209043994        9.4439429435       22.7748573324
  C         2.3009429384       10.2625393673       21.2592917230
  H         2.1202970445       12.3671334364       20.6049804135
  C         0.6407047125       10.5261279048       25.8197328026
  H         0.2832009785       14.1578645171       25.7827663732
  C         0.0782027142       12.4339905952       26.9664290824
  H         3.9241603651       12.8139571012       23.2097207560
  H         3.3613207170       12.8522351343       24.8462305476
  C         4.8159363049       14.3805548257       24.2118208768
  C         2.6972725491        9.5083644624       20.0245568993
  C         0.1442662157       11.0637069290       26.9875450485
  H         0.9478447023        9.5493668106       25.9417423056
  C        -0.3395125619       12.7346062437       28.2434706537
  H         5.6724048243       14.1277146648       24.8691023028
  H         4.4343866843       15.0920611576       24.8882488396
  C         5.3251782228       15.0236430023       22.8646095807
  C         2.4616417289        8.1477343872       19.6652083278
  C         3.0014193939       10.3705454038       18.9034784980
  C        -0.3689513953       10.2796291496       28.2046976598
  C        -0.6188023331       11.6097647314       28.9971099276
  S        -0.6207452810       14.1977424041       29.0937563327
  H         5.9912440213       15.8585808042       23.0714822088
  H         4.5072076480       15.4351196277       22.2771355584
  C         6.0890870411       14.0094281823       22.0412507289
  N         1.9804433829        7.1899443933       20.6130619502
  C         2.6969813855        7.6190726865       18.4368329347
  C         3.1955385754        9.8938306107       17.6436948360
  H         3.1618116230       11.4455233311       19.0905539959
  C         0.7297601611        9.4647203757       28.9832143222
  C        -1.6561726256        9.4926150590       27.9994320161
  C        -1.0905431053       11.9529405667       30.2844499897
  C        -1.0789129489       13.3379671913       30.4895023240
  H         6.9515928626       14.5196900014       21.7104723342
  H         6.5848686208       13.1685635304       22.6117198855
  C         5.4005168936       13.4261388360       20.7468293543
  S         2.0972813688        5.7642104079       19.8418660866
  N         2.4903879726        6.2568114445       18.3826751847
  C         3.1662274933        8.4334576354       17.3652977150
  H         3.5378146968       10.5780371348       16.8705518670
  H         1.0746125475        8.6917742583       28.2888280982
  H         0.2381664532        8.9538541867       29.8332811765
  C         1.9855020891       10.2525887896       29.3358107432
  H        -1.4857931722        8.6373978180       27.3590603344
  H        -1.9911423958        9.0731594321       28.8828197439
  C        -2.7060581467       10.3487448212       27.4093362868
  H        -1.3976987810       11.1923317353       30.9697942913
  C        -1.4339276674       14.0541234532       31.7877657063
  H         4.4581457437       13.8357871949       20.6500844549
  H         5.2375462663       12.3207308515       20.8175354218
  C         6.1349011348       13.8319554401       19.5027546663
  C         3.4335262475        7.7965827821       16.0616422851
  H         2.1561336513       10.8984305250       28.4831532461
  H         1.8645903186       10.8561908938       30.2391613607
  C         3.1182216923        9.3245738044       29.6853950111
  H        -2.2810539378       10.8842430388       26.5283274176
  H        -3.0745582322       11.1446744701       28.0782177057
  C        -3.8448099114        9.5920447804       26.9063077501
  C        -1.5613942983       15.4395175250       31.8986936849
  C        -1.6014914824       13.2217081149       33.0332405690
  H         5.5634429114       13.5435788133       18.6478163062
  H         6.1599107846       14.9267983643       19.3787609596
  C         7.5636706282       13.3083082548       19.3568599163
  H         3.3637810838        6.7297784620       16.1326485066
  C         3.6931835133        8.2595951624       14.8206406671
  H         3.5361951422        8.9748613718       28.8314721874
  H         2.7671298389        8.4399523510       30.0370184812
  C         4.3504209617        9.8438696929       30.4136313412
  H        -3.4234305892        8.8356786431       26.2718558180
  H        -4.3098275519        9.1720876568       27.7899092711
  C        -4.8477835180       10.4076998535       26.1262491324
  N        -1.3051740181       16.4016740891       30.9024133275
  C        -1.9167503971       16.0034936230       33.1189300872
  C        -2.0443175625       13.8142776767       34.2386689336
  H        -1.3459409396       12.1468158727       32.9880572251
  H         7.8264183636       12.5047375739       20.0030326829
  H         7.6381875492       12.8453527907       18.3786203771
  H         8.3770406419       14.0129285364       19.5680969549
  S         3.8857949995        9.8738177281       14.3038576646
  C         3.9140021485        7.2199375485       13.8268005210
  H         4.6852938545       10.6610227473       29.8506742460
  H         4.0363580045       10.2683049701       31.3920541849
  C         5.4885075421        8.7852809216       30.4840476907
  H        -4.3858586415       10.7668384989       25.1884990128
  H        -5.2303175874       11.2308137937       26.7451916028
  C        -6.2631238878        9.6572266212       25.9869725883
  S        -1.4258060021       17.8612931463       31.6129910421
  N        -1.8747942478       17.3797831746       33.0875432654
  C        -2.1978954550       15.2541970274       34.2771193140
  H        -2.0213999032       13.2214488296       35.1849517890
  C         4.0231068428        9.1032316171       12.6564870213
  N         4.1077503188        7.7395205948       12.6286788998
  O         4.0339946777        6.0145595252       14.0784370229
  H         6.3501478289        9.4881220403       30.4715791054
  H         5.5002165969        8.1859210901       29.5849510646
  C         5.4481305899        7.8738002083       31.6234762923
  H        -6.1892483483        8.8133680790       25.3379904338
  H        -6.6895294371        9.4138271398       26.8847533832
  C        -7.2481676036       10.6426388531       25.3336510063
  C        -2.5792740263       15.9806430775       35.5016457571
  S         4.5993483432        9.9869449076       11.1869408023
  C         4.1553856893        6.8917477323       11.4000169672
  H         6.2277227577        8.2169979227       32.2944198776
  H         4.5311092501        7.9115780701       32.2292564924
  C         5.9325324358        6.4800270463       31.2434623384
  H        -6.7992494920       10.9982953378       24.4067449834
  H        -7.3779586155       11.5216913053       26.0273006938
  C        -8.6213699588        9.9821370331       25.0250095062
  H        -1.9793582813       16.8653685524       35.7384784776
  C        -3.2918550614       15.6106804325       36.5721918234
  H         4.9584835012        7.1679161214       10.6554815345
  H         4.4053659819        5.8624524160       11.5969984630
  C         2.8089923962        6.7958104213       10.5911498432
  H         6.8574637308        6.5947338072       30.6487573056
  H         5.1773887696        6.1625990109       30.5761063030
  C         6.0792580649        5.5390763575       32.4342370440
  H        -9.1038681266       10.4164842762       24.1387366897
  H        -8.4458438445        8.8791553457       24.8857168412
  C        -9.6755523637       10.0863788010       26.1724743558
  S        -4.1410032076       14.1123253173       36.8627526803
  C        -3.4112164675       16.5741179509       37.7206363042
  H         2.3511854186        7.8169097247       10.6874706718
  H         2.8778250850        6.5638898884        9.5387879699
  H         2.0901039392        6.1637802273       11.0040707223
  H         6.8531868587        5.9936299152       33.0850333339
  H         6.3364154833        4.4629530061       32.2488639123
  H         5.1203592302        5.5485024795       33.0022242559
  H        -9.4875661263        9.2528085688       26.8344495229
  H       -10.7160599803        9.8226129767       25.9429059241
  H        -9.5425511299       10.9994439066       26.6764984136
  C        -4.4106418966       14.7414035475       38.4728388831
  N        -4.0643770238       16.0056250008       38.6915718050
  O        -2.9461047100       17.7171577566       37.7640115640
  S        -5.1069429839       13.7560935487       39.7433882750
  C        -4.1403743408       16.7813619262       39.9492915938
  H        -4.2820762263       17.8574172851       39.6884244430
  H        -5.0750824299       16.5977891599       40.4310528861
  C        -2.8704709666       16.7207169962       40.7780272512
  H        -1.9306251824       16.8931832517       40.2269567231
  H        -2.8114164232       17.4951181343       41.5219364579
  H        -2.6920667028       15.7420295782       41.2184840332
  H         7.4627622368       11.2879073972        3.1954231580
  C         7.9516416869       10.3696935745        3.3929197853
  H         7.1473694247        9.6321319746        3.4247394695
  C         8.8884533207       10.4874949623        4.6843081128
  C         8.8674223833       10.2347123844        2.1809709547
  C         8.1069245971       10.6449469981        5.9469714234
  H         9.6561777561        9.7474586862        4.6835793627
  H         9.5217757391       11.3465043220        4.6571849930
  H         9.9033640283       10.1692949101        2.3678118770
  H         8.7382435759       11.0663669385        1.5032916008
  H         8.6576097565        9.3616145416        1.5493190334
  C         7.2978886189        9.3905515769        6.3488438573
  H         8.8468139939       10.9630392494        6.6880386487
  H         7.4337697219       11.5013967453        5.9368223713
  C         6.6267389449        9.5504119255        7.6976657414
  H         8.0643239864        8.5598258797        6.5021564268
  H         6.6369775647        9.1297771598        5.5586737684
  C         5.3628837037       10.3867407846        7.6990501744
  H         7.3364390236       10.0239803068        8.3509445809
  H         6.3819082082        8.5636494339        8.1130249179
  C         4.1568725974        9.7792024256        6.8463569816
  H         4.8662688079       10.5755721571        8.6925150618
  H         5.7140008874       11.4407892198        7.4690079859
  C         2.9132845239       10.6977597727        6.8674774660
  H         3.7092439308        8.9138958597        7.3254058739
  H         4.3891850945        9.6162959645        5.7350231505
  C         3.2858599750       12.0120705049        6.1816700110
  C         2.4641979120       11.3612592796        8.1206985993
  C         1.7441730970       10.0165796738        6.1783055788
  C         3.0236907313       13.1050987750        6.9702546584
  C         3.7400002364       12.4034315611        4.8736096364
  C         2.5139411982       12.7280910125        8.2158014807
  C         1.9659606237       10.7411149249        9.3027509296
  H         2.0918026007        9.6259447058        5.2214351630
  H         1.3940536385        9.1574464306        6.7404658831
  C         0.4496147203       10.8438146302        5.9686825287
  S         3.2790049966       14.6143580134        6.2023693365
  C         3.8502150272       13.7824704855        4.7773084145
  H         3.9581286939       11.6408540190        4.1710089571
  C         2.1352094390       13.3835710263        9.3516928362
  H         2.0170939892        9.6896121181        9.3562977571
  C         1.5862588422       11.3753024843       10.4437978175
  H         0.6921032651       11.7967923946        5.5039521528
  H        -0.0482627410       11.0712216056        6.9368672927
  C        -0.6291939301       10.1743709376        5.1611221259
  C         4.2393295239       14.5198790040        3.4922731228
  C         1.6126366954       12.7191399704       10.4794047957
  H         2.1953174283       14.4909382943        9.3480909809
  C         1.1712744941       11.0099629062       11.6672651817
  H        -1.5743836394       10.7625183592        5.2070723400
  H        -0.8721567787        9.2639426276        5.5922379321
  C        -0.2189545920       10.0809858146        3.6219704047
  C         4.2217977209       15.9105154905        3.2222864354
  C         4.6620135122       13.6623354372        2.3363155394
  C         1.1947349529       13.4256236400       11.7497455377
  C         0.8651023730       12.0859037910       12.4648272533
  S         1.0015040339        9.4528980511       12.4074425601
  H         0.4094617572        9.1805143585        3.6397688211
  H         0.4256490121       10.8738043288        3.3133472920
  C        -1.3272303169        9.9332938984        2.6210244678
  N         4.0058654146       16.8960334450        4.1939895692
  C         4.6826597223       16.4699285045        2.0474010061
  C         5.1051098605       14.2526083506        1.1454582931
  H         4.6632786573       12.5793161046        2.3691326221
  C        -0.0668188378       14.2148429292       11.4571290677
  C         2.3462070418       14.1926929653       12.4666137955
  C         0.3543883475       11.5978073237       13.7019512197
  C         0.4151857854       10.2179827481       13.8527633297
  H        -2.0308155967        9.1636741935        2.8619270640
  H        -1.8069419216       10.9222900935        2.6921698929
  C        -0.8444095129        9.8521200798        1.1809953310
  S         4.1321701716       18.3623562626        3.5564141943
  N         4.7682584536       17.8562057689        2.0892070453
  C         5.0127373391       15.6896081950        0.9250563649
  H         5.5367933625       13.6002230743        0.4255238861
  H         0.0466892665       15.1189392710       10.9157937047
  H        -0.3311683105       14.6787052924       12.4215679483
  C        -1.2582630283       13.3719389319       10.9258090668
  H         2.7973950553       14.8114238173       11.6714337183
  H         2.0076995234       14.9546250703       13.2167813347
  C         3.4102234556       13.2892461970       13.1505987787
  H        -0.0304749989       12.2450687048       14.4544416050
  C         0.1960755824        9.4721301256       15.1115730158
  H        -0.1338221286        9.1101431022        1.2215769591
  H        -0.3467329112       10.6708389468        0.8483872440
  C        -1.9913618926        9.7834671540        0.1411814734
  C         5.2841493126       16.3347671360       -0.3518257486
  H        -1.1191284048       13.1083829272        9.8962579017
  H        -1.4626054989       12.5154121726       11.5341676909
  C        -2.6007504429       14.0484995583       10.9262887854
  H         3.8815605912       12.6082231646       12.4674087559
  H         2.9633185365       12.6758481996       13.9466029973
  C         4.6477118605       14.0501106492       13.4764448309
  C         0.1147522770        8.0545939401       15.2621310179
  C        -0.1309201771       10.2550787419       16.3122682760
  H        -2.2827292682        8.7388661579       -0.0397889138
  H        -2.9220749039       10.1496256878        0.4649466410
  C        -1.5068055386       10.5847522859       -1.0486581284
  H         5.0793866301       17.3824672628       -0.3338772950
  C         5.6133356626       15.8188557422       -1.6102910813
  H        -2.7772792355       14.4937670511        9.9209345292
  H        -2.8173410994       14.7698817605       11.7115630135
  C        -3.6709619247       12.8981007409       11.0559624155
  H         4.9768486131       14.7730210562       12.7254114562
  H         4.4661336009       14.7449809501       14.2427928345
  C         5.7661373244       13.2111706784       14.0204937574
  N         0.4452222388        7.1267196602       14.2994155400
  C        -0.2276984494        7.4234206400       16.4194694443
  C        -0.4049105097        9.6308040037       17.5126065770
  H        -0.1458880741       11.2759629701       16.2168015251
  H        -0.5931971300       10.1520331039       -1.2974964208
  H        -1.4470535987       11.6275550902       -0.8654994664
  H        -2.2414659162       10.4359519747       -1.8559777942
  S         6.0459818926       14.2535785669       -2.0334941710
  C         5.6482277242       16.8266115847       -2.7149493641
  H        -3.3411918082       12.0390757703       10.3949245452
  H        -3.6116902380       12.4754659027       12.0922462180
  C        -5.0035525648       13.4494457305       10.7693130361
  H         5.7671113367       12.3115182099       13.6477922254
  H         5.5273308798       13.0379676161       15.0860874004
  C         7.1190158068       13.8830181391       13.8853557753
  S         0.1111048113        5.6131009167       14.7572102632
  N        -0.1678712267        5.9785160762       16.3035428242
  C        -0.4397991286        8.1246597739       17.6300660867
  H        -0.6325642628       10.2948826539       18.3646404965
  C         6.1959423089       14.8963507000       -3.6928998850
  N         6.0801746350       16.2432770888       -3.7731690894
  O         5.3319120403       17.9989754302       -2.5978722274
  H        -5.5462421694       13.4830952770       11.6868281961
  H        -4.8916760178       14.5391403652       10.6731888389
  C        -5.6987605414       12.8062659206        9.6114333532
  H         7.9942349080       13.1852959547       13.9757014502
  H         7.0496770942       14.4521980021       12.9876876581
  C         7.3243992740       14.7709217179       15.1025978188
  C        -0.8387805442        7.3291334621       18.7423627537
  S         6.2064810292       13.8980371912       -5.1104860700
  C         5.9495342821       16.9776711178       -5.0237405543
  H        -4.9590079686       12.5031030565        8.8150775459
  H        -6.2431304298       11.8693446268        9.9692049934
  C        -6.6497418334       13.7912048091        9.0333009929
  H         8.3918918942       14.6716620903       15.3730601433
  H         6.8180190834       14.5895389417       15.9954443509
  C         7.2947350528       16.2389136571       14.7632248805
  H        -0.9955871099        6.3336961018       18.5232517665
  C        -1.1602630251        7.7177360207       20.0318224328
  H         6.7378329387       16.7046136722       -5.7496908222
  H         5.9836240376       18.0633675916       -5.0160803906
  C         4.5313610907       16.7955904964       -5.6978348274
  H        -6.7820702688       13.4723685870        7.9869571692
  H        -6.2255393418       14.8099390498        9.1630253036
  C        -8.0357237173       13.7940613445        9.6319991553
  H         6.4646478608       16.3525392981       14.1013125310
  H         7.0002472153       16.7885046222       15.6759588953
  C         8.6190497178       16.6750600516       14.1641708316
  S        -0.9620580593        9.3141130002       20.7910708023
  C        -1.4115700182        6.6384296483       21.0447834703
  H         3.8293943609       17.4270964464       -5.2050953345
  H         4.2074541090       15.7549804681       -5.6517428766
  H         4.5463278258       17.0520427629       -6.7811551028
  H        -8.3982648234       12.7797003659       10.0053089749
  H        -7.9955861362       14.3916306568       10.5122750848
  H        -8.7371619361       14.2930593316        8.9828059751
  H         8.6088489966       17.7720896558       13.9004051537
  H         9.3504225531       16.5644987221       14.9204259113
  H         9.0110687961       16.1364947278       13.3630496602
  C        -1.5276863292        8.5226378125       22.2575526097
  N        -1.7584879134        7.2007256149       22.2370813778
  O        -1.5466024738        5.4847587761       20.7350392080
  S        -1.9443919296        9.4523817077       23.6939589053
  C        -1.9727620275        6.4134571384       23.5255003344
  H        -2.4222939411        5.5283716347       23.1674251526
  H        -2.7710889006        6.8452147892       24.2580533338
  C        -0.6086710545        6.3150586765       24.2149671123
  H         0.3078939262        6.2933014406       23.6069485835
  H        -0.6025290957        5.4124029395       24.8085374985
  H        -0.5475656824        7.0457376325       24.9615168144
