352
i =
  H        -4.1820446575       14.0479878726       16.3585146757
  C        -3.5570374367       13.1048674116       16.3563220833
  H        -4.2865782037       12.3099924970       16.5624305361
  C        -2.4712937033       13.3503249614       17.4558045136
  C        -2.8793558406       12.8900876959       15.0327450515
  C        -2.8927315254       13.5099758741       18.9278453654
  H        -1.7859646452       12.4664981188       17.3654147642
  H        -1.9239257720       14.2705842406       17.2399546371
  H        -2.3363358277       13.7632588966       14.6692886900
  H        -2.1142916550       12.0622420970       15.0706624503
  H        -3.6146795633       12.5173824079       14.3995859652
  C        -1.7043723886       13.5893464546       19.8780854405
  H        -3.6311177900       12.7624416240       19.1957131293
  H        -3.4364137130       14.4665702746       18.9374052281
  C        -2.2984668596       13.5447344998       21.2986164545
  H        -1.0746163660       12.7269550939       19.6907803213
  H        -1.0467720995       14.4523230731       19.7340526697
  C        -1.4181269859       12.9063810017       22.3915600497
  H        -3.3050126073       12.9945663919       21.2041011017
  H        -2.5395304328       14.5851194977       21.5290388068
  C        -0.2075405032       13.7312274937       22.8425193314
  H        -2.0198845202       12.7284649377       23.2211642995
  H        -1.0475157641       11.9769178542       21.9960155774
  C         0.8784774104       13.0612696487       23.6129311633
  H         0.3787126875       14.1237675332       22.0127501581
  H        -0.5422430163       14.5723202765       23.4620692543
  C         1.3130185478       11.7878788133       22.9634196969
  C         0.4185279792       12.4338847026       24.9503318578
  C         2.1918650746       13.9276319324       23.8192680667
  C         1.2251247809       10.7095000647       23.8568026492
  C         1.7429640979       11.3193422462       21.7213517346
  C         0.7087340467       11.1172390759       25.0889019656
  C        -0.0252380471       12.9861418308       26.1462984680
  H         2.3736109350       14.4158462859       22.8549363049
  H         1.8831244961       14.7580098865       24.4246241108
  C         3.4959472338       13.1814408464       24.3863664880
  S         1.7355255546        9.1925081902       23.1609955352
  C         2.0307985526       10.0240381883       21.6815828576
  H         1.8533197504       12.0729895075       20.9450227309
  C         0.4933342867       10.4352022771       26.2424215408
  H        -0.1918552212       14.0077605948       26.0976879555
  C        -0.1521152030       12.3274248101       27.3370928802
  H         3.8674700418       12.3987703908       23.7859159870
  H         3.2729834685       12.8126033877       25.4189254685
  C         4.6425706788       14.1891202513       24.6351121515
  C         2.5759722687        9.3078656061       20.4938685712
  C         0.0866068299       11.0094531881       27.3841667562
  H         0.5244770649        9.2659745891       26.2006515875
  C        -0.4825201297       12.6905455899       28.5635668392
  H         5.4248998575       13.6277973435       25.1252579419
  H         4.3572723111       15.0060689617       25.2971827834
  C         5.3365785428       14.8532035708       23.4675650004
  C         2.5946122253        7.9319121122       20.2050389933
  C         3.0953249665       10.0943144657       19.3652392486
  C        -0.3103624225       10.2607838282       28.6098819073
  C        -0.7004972624       11.5627273586       29.3398095830
  S        -0.8628248227       14.1500133467       29.4049136379
  H         5.9288351273       15.6734780878       23.8100022235
  H         4.5676881497       15.2415173971       22.8338294105
  C         6.1359532135       13.9488881383       22.5342547501
  N         2.3165747407        6.9454140394       21.1496110925
  C         2.8010110541        7.3955086677       18.9466499692
  C         3.1859400413        9.5606106358       18.0803080215
  H         3.2035518137       11.1827909447       19.4869353863
  C         0.7477110718        9.4197034205       29.2033214125
  C        -1.5169689659        9.3193833113       28.2285938095
  C        -1.0665296307       11.9576039632       30.6292093669
  C        -1.1498956944       13.3030169159       30.8663149607
  H         7.0307281605       14.4484682356       22.6116504948
  H         6.3873915928       12.9739109057       22.8210757825
  C         5.8235136439       13.9384831043       21.0347855464
  S         2.4001026167        5.4880093402       20.4014987343
  N         2.7187500323        5.9950888043       18.8826328139
  C         2.9866977246        8.0915589947       17.8114745269
  H         3.6737624435       10.1798977576       17.3363036207
  H         1.0134301979        8.6393036094       28.5246119950
  H         0.3472608299        8.8204529249       30.0416456465
  C         1.9655181378       10.2508006422       29.6304020084
  H        -1.2677863407        8.5452989056       27.5019182629
  H        -1.7002956475        8.7482188553       29.1524899193
  C        -2.8034031413       10.0921424783       27.6772534631
  H        -1.3242553034       11.1432229124       31.3221372404
  C        -1.5064845263       14.0495068875       32.1156077028
  H         5.4735022422       14.9429830873       20.8618607460
  H         5.0134586563       13.2613931521       20.8087049620
  C         7.1115694506       13.6567362490       20.2459670660
  C         3.0190678633        7.3979633575       16.5194846275
  H         2.4821784133       10.7408231611       28.8848763437
  H         1.6283978098       11.0247209964       30.3679728557
  C         3.0760427073        9.3281793505       30.1903673845
  H        -2.6236478441       10.6947443097       26.7929991059
  H        -3.1383354712       10.8252425359       28.4593235629
  C        -4.0655437314        9.2185293807       27.4605815860
  C        -1.6686963446       15.4432689546       32.2670881867
  C        -1.8344666350       13.2959190657       33.3359057901
  H         8.0242965551       14.1539066887       20.6429681620
  H         7.2021518106       12.6531585164       20.3492872716
  C         6.8938800693       13.8826348853       18.7542234046
  H         2.4718142274        6.4282284257       16.5503901677
  C         3.3676399928        7.7781426773       15.2084905547
  H         3.6601952249        8.8546141681       29.4062682103
  H         2.5896649859        8.5551482480       30.8274960832
  C         3.8946192708       10.2130854990       31.1830434375
  H        -3.9838160039        8.4334890690       26.6929580658
  H        -4.3625243138        8.7087864710       28.4591517779
  C        -5.1549657107       10.0814180210       27.0412519768
  N        -1.3692077455       16.4120526991       31.3201596006
  C        -1.9971795123       16.0972359850       33.4676817242
  C        -2.1631722048       13.9187057981       34.5349609854
  H        -1.8019049127       12.2529797341       33.1341634638
  H         7.1686571212       14.9187985447       18.3871952596
  H         7.5515749887       13.1482682646       18.2550854708
  H         5.9054734417       13.6313591624       18.5182636060
  S         3.8430618377        9.3845253988       14.7430210775
  C         3.3847594899        6.7924314982       14.1449498951
  H         3.7113380246       11.2372401129       30.9062706390
  H         3.4306548862       10.0604033288       32.1281925411
  C         5.3029775574        9.6746541419       31.1463871552
  H        -4.8552969597       10.8195922207       26.3345978319
  H        -5.5776901618       10.6709594668       27.8779272538
  C        -6.3389395086        9.4573913536       26.5034700182
  S        -1.5673937305       17.8772422004       31.8979026287
  N        -2.1233892897       17.4908575117       33.3319359330
  C        -2.2378793640       15.4145320090       34.6709272868
  H        -2.3754557810       13.2618518231       35.3418149384
  C         3.8807383829        8.6817678092       13.1012372558
  N         3.6989758780        7.3696462082       12.9939479086
  O         2.9684499827        5.6548694629       14.3367215162
  H         5.9010301286       10.3689723563       31.7369551022
  H         5.5482907656        9.7798376138       30.0591287737
  C         5.6598001627        8.2096549516       31.7046388056
  H        -5.9576233747        8.9598414681       25.5952954248
  H        -6.8494161651        8.7065933376       27.1373033962
  C        -7.3220804823       10.4537353265       25.9530943714
  C        -2.6394767910       16.1628011572       35.8305883009
  S         4.2728176878        9.7180073926       11.7122596034
  C         3.7192110172        6.6261844387       11.7676475070
  H         6.5644958854        8.3549060544       32.2853308260
  H         4.8413816223        7.8757469042       32.3692170147
  C         5.9621895997        7.1903750265       30.5599535066
  H        -6.6652838046       11.0273400496       25.2575164992
  H        -7.7249807914       11.0831088403       26.7930248504
  C        -8.4989327237        9.7842669870       25.1937901502
  H        -2.5731517945       17.2090701095       35.8299379693
  C        -3.1195744162       15.7882501136       37.0815978565
  H         4.3212591132        7.0636644175       10.9497334331
  H         4.1911812242        5.7172713175       12.1005678050
  C         2.4031552780        6.4917812944       11.0531228456
  H         6.1041419051        7.7502156998       29.6471008071
  H         5.1070348427        6.6197737976       30.3885939010
  C         7.1062854850        6.2078690458       30.8045107466
  H        -8.8236315043       10.4355362054       24.3801239172
  H        -8.0843018311        8.8423589131       24.8549898826
  C        -9.8004004968        9.5724173587       26.0250456939
  S        -3.3769999220       14.1674475120       37.5507305367
  C        -3.3051426516       16.8307674846       38.1248847374
  H         1.5159132607        6.7276704892       11.5867904222
  H         2.3521764575        7.1295516730       10.1989676497
  H         2.3173131317        5.4996144426       10.6604025649
  H         7.0224055282        5.8520713583       31.8355019076
  H         8.0814199987        6.6576240033       30.6433475522
  H         7.0920652487        5.2819018978       30.2410560259
  H       -10.0871562670       10.4902622872       26.5237048933
  H        -9.4750577405        8.9156993017       26.8125602628
  H       -10.5549060643        9.1830291976       25.4613414123
  C        -3.8548344793       14.8190213466       39.0929591739
  N        -3.7939812405       16.1395040975       39.1911184581
  O        -2.9830942428       18.0061198129       38.0176312616
  S        -4.2812151926       13.8264003935       40.4358627576
  C        -3.9237427313       16.8474292315       40.4783655197
  H        -4.3339373127       17.7840340967       40.1304886097
  H        -4.6021587555       16.4071215558       41.2274456272
  C        -2.5259315447       17.0735439963       41.1154490451
  H        -1.9454260035       17.9194657223       40.6540766584
  H        -2.6316241766       17.3171976395       42.1521933803
  H        -1.8222848537       16.1774279544       40.9723602702
  H         7.7784344564       10.6866518519        3.6505395889
  C         8.4832414970        9.8951896415        3.8737942042
  H         7.9373187134        9.0079442854        3.8545548816
  C         9.0140155993       10.0472761636        5.2335858873
  C         9.6054107880        9.8170981863        2.9446456246
  C         7.8929053395       10.2910480883        6.2907734365
  H         9.5598823457        9.1217973977        5.6274234192
  H         9.7494128889       10.8151109959        5.3065620639
  H        10.2693580060       10.6572122263        3.1245585231
  H         9.1866230141        9.8593497529        1.9686558465
  H        10.1237040116        8.8478745428        3.0939575621
  C         7.2638207341        9.0900352183        7.0197445574
  H         8.2166467225       10.8883846258        7.1186029025
  H         7.1683476878       10.8802484461        5.8026668202
  C         6.5362374333        9.3926860708        8.3265676882
  H         8.0289473013        8.3735662807        7.2023046698
  H         6.5070581321        8.6844864440        6.2848496205
  C         5.3666600490       10.2722418269        8.1144274096
  H         7.1056886898        9.9249038189        9.1146436512
  H         6.1898386655        8.4481714448        8.6962702303
  C         4.0606864867        9.4731013882        7.5759137692
  H         5.0519649744       10.8564989696        9.0107304115
  H         5.7448592015       11.1362737649        7.4732166808
  C         2.7863868271       10.3554155216        7.4144133600
  H         3.9903161357        8.6178865782        8.2749213183
  H         4.1427054913        9.0568252854        6.6087371183
  C         3.0749096673       11.6467397291        6.7905308166
  C         2.3056951326       11.0279706513        8.6625239024
  C         1.5767280729        9.6101184481        6.8229896164
  C         2.8507516951       12.7521180644        7.5894345144
  C         3.5921412259       12.1149558637        5.5457523592
  C         2.3150327352       12.3987358642        8.7731760882
  C         1.7761721459       10.4522290491        9.7339876073
  H         1.9417771617        9.1263757289        5.9197870417
  H         1.2727004420        8.7942475501        7.4218793689
  C         0.2481108961       10.4889058182        6.5997122117
  S         3.1866221176       14.3111502843        6.8744967805
  C         3.6559266755       13.4964742009        5.4318990834
  H         3.8829024718       11.3683773306        4.8657594784
  C         1.8902168592       12.9930173510        9.8810591958
  H         1.7877776719        9.3635700515        9.6074225187
  C         1.2820707181       11.0655761700       10.8877610135
  H         0.5759779639       11.4277285830        6.2405988913
  H        -0.1876292563       10.6595935521        7.6017264028
  C        -0.7932759253        9.7878551066        5.6653872253
  C         4.1319272840       14.2029681450        4.2221889699
  C         1.3576854553       12.4081748336       10.9813054204
  H         1.9992837149       14.0757720016        9.9986770884
  C         0.8439110257       10.7592862269       12.1498253500
  H        -1.8024719094       10.1879636572        5.7865017979
  H        -0.7103870080        8.7389941320        6.0181701287
  C        -0.3935892409        9.8663057942        4.1897365791
  C         4.2110660722       15.5425334958        4.0177421044
  C         4.5675210966       13.4113734946        3.0889765510
  C         0.9454016549       13.1135783642       12.2335239776
  C         0.5673183691       11.8549265374       12.9479378036
  S         0.6454708743        9.2644524596       12.9774463462
  H         0.2875079059        9.0887097666        3.9048675542
  H         0.1272904622       10.8526267202        4.1367336200
  C        -1.5496368663        9.7794252019        3.1451116625
  N         3.8737967297       16.5243822131        4.9476266767
  C         4.5921808540       16.1179429996        2.7855107506
  C         4.8840277074       13.9306413092        1.8172993015
  H         4.5047144932       12.3204514286        3.1176509811
  C        -0.2790854339       14.0825653586       12.0048209226
  C         2.1184141098       13.7499096543       12.9442976689
  C         0.2163033070       11.5407739534       14.2724562199
  C         0.1632069020       10.1715074287       14.3969080186
  H        -2.1027426728        8.8477654606        3.3004113123
  H        -2.2587476359       10.5709776756        3.3631531782
  C        -0.9974333471       10.0287128174        1.6628699701
  S         4.2801049421       17.9858797415        4.2890009794
  N         4.6200163825       17.5118923633        2.7698234195
  C         4.9158033765       15.3468265166        1.6475283651
  H         5.1339590385       13.2123257911        1.0149096104
  H         0.0143241619       14.8453224631       11.2847008210
  H        -0.4314402927       14.6304482570       12.9242008969
  C        -1.4562771295       13.3689288311       11.5766262160
  H         2.3557036625       14.5204388976       12.2326467045
  H         1.8551140625       14.2735141848       13.8689733862
  C         3.2999709553       12.7686694791       13.3975848417
  H         0.1173991020       12.3646993290       15.0002759135
  C        -0.0292508764        9.4318156688       15.7388981726
  H        -0.1882678153        9.3722580377        1.5586199548
  H        -0.5032863217       11.0202412427        1.5299738346
  C        -2.0804754096        9.7767962267        0.6136672536
  C         5.1389565330       15.9640960804        0.3926181489
  H        -1.1899582420       12.7586593641       10.6685357553
  H        -1.9709949008       12.6763632731       12.2223711198
  C        -2.5989200036       14.2699542547       11.1813661607
  H         3.7158044354       12.1878598938       12.5917942394
  H         2.9216373078       12.0890016924       14.1817293497
  C         4.4715748618       13.6470226328       13.9899932459
  C        -0.0833037295        8.0346443022       15.8760750633
  C        -0.1014452654       10.2359384416       17.0038544918
  H        -2.4582452454        8.7478724500        0.7401944275
  H        -2.9486031774       10.4704466130        0.6840849222
  C        -1.6145976980       10.0268931387       -0.8584735128
  H         5.2141521627       17.0637264379        0.4742899708
  C         5.3369973936       15.4684369397       -0.8527968517
  H        -2.3251455979       15.0367388630       10.4461016558
  H        -2.8731648472       14.9676104245       11.9805069368
  C        -3.8381887773       13.5019400303       10.7165814153
  H         4.7854965639       14.5372077400       13.3247301643
  H         4.0214966143       14.1382944705       14.8271600462
  C         5.7407245575       12.7666925050       14.2002093269
  N        -0.0576290082        7.1211274159       14.8429740793
  C        -0.2706692373        7.4311981986       17.1053262720
  C        -0.2604805783        9.6151921575       18.2632862644
  H         0.0438805899       11.3349796601       16.9591676094
  H        -2.4612411104        9.8284690088       -1.5320554904
  H        -0.7618688272        9.3888598926       -1.0795612973
  H        -1.3218165408       11.0023132929       -1.1120066818
  S         5.7096442605       13.8745665955       -1.2741552861
  C         5.4193884314       16.4337794139       -2.0299405484
  H        -3.6103763240       12.4665824740       10.6704473497
  H        -4.5729675391       13.6335626429       11.5054524323
  C        -4.4991043773       13.9249995836        9.4285188358
  H         6.1557104077       12.4085976326       13.2735328524
  H         5.3999463544       11.9040575421       14.8049853191
  C         6.8319611289       13.5062736293       14.9888129375
  S        -0.2985852460        5.6044113999       15.4721456660
  N        -0.4370900484        6.0539701457       17.0435503329
  C        -0.4242237512        8.1627954688       18.2592436064
  H        -0.1287250679       10.2517584040       19.1296255235
  C         6.1004204542       14.4594494258       -2.9200775835
  N         5.7207400328       15.7665694265       -3.1395755977
  O         5.2572258210       17.6391075646       -1.9665880541
  H        -4.8153914324       14.9393798661        9.5333648647
  H        -3.8251308860       13.8962526922        8.5584590757
  C        -5.7014847309       13.0534942873        9.0834342532
  H         6.4807496505       13.9901413529       15.9138165326
  H         7.5751905422       12.8147778733       15.3932315972
  C         7.6313382072       14.4392388742       14.1313619107
  C        -0.5341286665        7.4237162023       19.5347392103
  S         6.2587313460       13.4042161534       -4.2556357650
  C         5.7626265180       16.3467979804       -4.4806205540
  H        -5.5707418795       12.3455412595        8.3732278735
  H        -5.9716267215       12.4911881422        9.9805483212
  C        -6.9600359948       13.8108523385        8.6684791016
  H         7.2233756645       14.6752686808       13.1830335615
  H         8.5805990788       13.9324675872       13.8551845359
  C         7.8278750586       15.7632195730       14.8475456685
  H        -0.1259217851        6.4730472739       19.5267724404
  C        -1.2477968375        7.6880096806       20.6567598687
  H         6.3910434195       15.7929985489       -5.1970506076
  H         6.2315703488       17.3234144222       -4.4515573393
  C         4.3333376198       16.5892879136       -5.0792904621
  H        -7.5424259086       13.2026650794        7.9185905518
  H        -6.5518934336       14.7193110949        8.1588621401
  C        -7.7442427312       14.2389212728        9.9182510240
  H         6.8693675453       16.1593991405       15.1402918016
  H         8.2539241266       15.5530227210       15.8394370973
  C         8.6072511735       16.8825189619       14.0800908983
  S        -2.0019162910        9.1798612709       21.0644264717
  C        -1.2750899789        6.6385622583       21.7164188391
  H         3.7496216329       15.7067654169       -5.0876818019
  H         4.5273868562       17.0745029122       -6.0330002677
  H         3.6840224922       17.1309121488       -4.3816442504
  H        -8.7194624308       14.6280486391        9.5957300289
  H        -7.8737015137       13.4857048442       10.6926058859
  H        -7.3101755358       15.1398664602       10.4563246063
  H         8.0066372501       17.3654516706       13.2842046667
  H         8.8748412398       17.6893005567       14.6568122061
  H         9.5461789330       16.4310043044       13.7269916408
  C        -2.5030742653        8.4460362193       22.5716700999
  N        -1.9774110595        7.1712077933       22.7499415153
  O        -0.6532275950        5.5821236479       21.7581359302
  S        -3.3696823553        9.3010354641       23.8978711055
  C        -2.0765067822        6.3866077460       23.9812840274
  H        -1.7881956351        5.3055956600       23.8700954135
  H        -3.1360023233        6.3442196251       24.3071936417
  C        -1.1361247671        7.0271291173       24.9726009940
  H        -0.7141957281        6.2422353996       25.5728058860
  H        -1.7807043885        7.6551176787       25.6661865421
  H        -0.3738083292        7.5508067467       24.4621217895
