352
i =
  H        -3.2207221115       15.4234681872       15.9466224161
  C        -3.4005318072       14.3387835261       16.1251736868
  H        -4.3685422776       14.2132175963       16.4861849580
  C        -2.4414976558       13.9021339815       17.2210394694
  C        -3.1605354451       13.5398471932       14.8370856358
  C        -2.9222043147       14.1983913763       18.6324849232
  H        -2.3341814367       12.8267808849       17.0449429422
  H        -1.4766284718       14.2416164714       17.0436601796
  H        -2.1508595484       13.0400384399       14.7495316518
  H        -3.9920987946       12.8605878487       14.6646252318
  H        -3.1557614231       14.1829949346       13.9761961748
  C        -1.8111835765       13.7181760158       19.6286987508
  H        -3.8196015028       13.6929955534       18.9027069671
  H        -3.0500631775       15.2325006781       18.7148959210
  C        -2.2402609464       13.4964315455       21.0432977839
  H        -1.4712123389       12.6941217201       19.2593743583
  H        -0.9102661190       14.3486070513       19.5137788166
  C        -1.0950970333       13.0085121720       21.9712007731
  H        -3.0138587023       12.6776482830       21.0092028340
  H        -2.7497111363       14.4137305826       21.4322355936
  C         0.0675937272       14.0264346095       22.2377979127
  H        -1.5406219400       12.6606586125       22.8565393993
  H        -0.7177072222       12.1333192820       21.4545823407
  C         1.3208240723       13.4575861023       22.9345896072
  H         0.2677397138       14.5851259983       21.3679843258
  H        -0.3392819786       14.7949755153       22.8478374666
  C         1.6391667915       12.2425220209       22.1167476021
  C         0.9266842403       12.6999711068       24.0731311478
  C         2.4676156063       14.4596809148       23.1220924428
  C         1.4821379278       11.0902520550       22.7930728191
  C         2.2173527205       12.0430487913       20.8336845139
  C         0.9684156844       11.3725210492       24.0775877626
  C         0.4687782426       13.2086260324       25.3067895914
  H         2.7149965527       14.9901619099       22.1152925010
  H         2.1807173940       15.2112517195       23.8162139618
  C         3.7160168863       13.7957394696       23.6780051000
  S         1.8292272265        9.6836939929       21.8635266860
  C         2.3963860056       10.7033268831       20.5863300145
  H         2.4408845645       12.9258075400       20.2101484293
  C         0.5378904023       10.6519496124       25.1637431721
  H         0.3356933429       14.2923404792       25.4073314062
  C         0.0991322584       12.4712502799       26.3746474562
  H         4.0820024992       13.0342837448       23.0441306348
  H         3.5015649786       13.3823181102       24.6507718282
  C         4.9637153092       14.7076619738       23.8847617713
  C         2.9774752338       10.1782389548       19.2973280037
  C         0.1817386842       11.1434456517       26.4174184925
  H         0.4191906807        9.5790023211       25.1516950212
  C        -0.3351442104       12.7517670667       27.6449842994
  H         5.7054720059       14.2549515470       24.6020784139
  H         4.7393379620       15.6132357267       24.3860104464
  C         5.7167922617       15.1049989489       22.6142844069
  C         2.8369496064        8.7779904821       18.8965451105
  C         3.3563410277       11.1045432147       18.2538653703
  C        -0.2973860450       10.3705599001       27.6267066283
  C        -0.4947254776       11.6542395480       28.4305218975
  S        -0.6312121823       14.2838408856       28.3605041806
  H         6.5506844826       15.7517986679       23.0024433329
  H         4.9263816061       15.5933557817       21.9738226622
  C         6.4471707339       14.0349632205       21.7474386682
  N         2.4672165707        7.6989589908       19.7264650387
  C         3.0219758145        8.3329767118       17.6009100804
  C         3.7682842943       10.6228114056       17.0117514424
  H         3.6275369790       12.0781680275       18.4672376802
  C         0.8265341251        9.5339267783       28.2989462416
  C        -1.6052208324        9.5744789720       27.4466250637
  C        -0.9743509387       12.0150769462       29.6997874043
  C        -1.0280187938       13.3802571257       29.7637905361
  H         7.4625237160       14.3340443441       21.5343531318
  H         6.5197953625       13.0945418095       22.4256182911
  C         5.6669803844       13.8242849943       20.4625366385
  S         2.2615367598        6.3404465031       18.8253399579
  N         2.7129131097        6.9561847690       17.3828422072
  C         3.5675027769        9.1799561251       16.6732741388
  H         4.1229384723       11.2642483067       16.2636307462
  H         1.0156606185        8.6680141136       27.6525623711
  H         0.4399574796        9.0947396660       29.2041689216
  C         2.1828461624       10.2584894332       28.5319695798
  H        -1.5548184190        8.8061937939       26.5707504401
  H        -1.6546966734        8.9635699648       28.2892506111
  C        -2.7976442175       10.4623041520       27.2809448715
  H        -1.1720679407       11.3213283346       30.4650558449
  C        -1.3055183097       14.2004831166       31.0049367339
  H         4.7059904182       14.3325089623       20.4246648655
  H         5.4682986483       12.7838271302       20.4655344435
  C         6.6655418218       14.1607463011       19.3279109981
  C         3.8853569145        8.5755148715       15.4059595683
  H         2.6074175604       10.4327143486       27.5947181448
  H         2.0013373906       11.2713709731       28.8553710242
  C         3.2122567456        9.4503684051       29.3384879351
  H        -2.4821448937       11.2626580950       26.6207139700
  H        -3.1847941195       10.7366619101       28.2863393681
  C        -4.0136063168        9.7690457259       26.5612617521
  C        -1.3099252830       15.6240150307       31.1602778779
  C        -1.6124573952       13.4431022052       32.2916596780
  H         6.9692117135       15.1858841367       19.4842669564
  H         7.5789377564       13.6593475954       19.4447433926
  C         6.1757203991       14.1493769882       17.8952552591
  H         3.8420055089        7.5262776712       15.4655995415
  C         4.1905304162        9.0265450396       14.1638316680
  H         3.7492748910        8.7535567663       28.6476064958
  H         2.7985437821        8.8247722584       30.2069853364
  C         4.2117889929       10.3216299141       30.0737185158
  H        -3.7446092733        9.1556728982       25.6924837407
  H        -4.5250358558        9.1105213342       27.2664228017
  C        -5.0397319028       10.7413401479       26.1128553954
  N        -1.1555403645       16.5151355772       30.1424439820
  C        -1.5884849435       16.3091716685       32.3852776432
  C        -1.8128311653       14.1028597747       33.4830266791
  H        -1.6379374079       12.3476726771       32.2575875858
  H         5.0912058626       14.1113581468       17.7659802347
  H         6.6744792774       15.0128612866       17.3828280314
  H         6.5698921120       13.1552202248       17.5337936280
  S         4.3707769624       10.6293478813       13.7189093554
  C         4.3482521313        8.0508679767       13.0624936652
  H         4.1682730903       11.4006495744       29.7406319063
  H         3.8865684079       10.3258114047       31.1655138758
  C         5.6600487373        9.8541479461       29.7397798766
  H        -4.7442043587       11.3778995954       25.2746997709
  H        -5.2298823728       11.2997035229       27.0394370798
  C        -6.3787636131       10.0183395964       25.8044161619
  S        -1.2629591355       18.0373127534       30.7561550581
  N        -1.5608036659       17.6827253304       32.2733194228
  C        -1.8056049557       15.5875211107       33.6107972312
  H        -1.8659546427       13.4770913232       34.3720534645
  C         4.7279836243       10.0575879478       12.0529688930
  N         4.8143909511        8.6896166729       11.9534049384
  O         4.3373434675        6.8162687923       13.2078307584
  H         6.4562829289       10.6435821822       29.9313103266
  H         5.8467983021        9.5399399333       28.6752906035
  C         6.1165884512        8.7211401260       30.6403750755
  H        -6.1862251231        9.0277838354       25.3382147271
  H        -6.7819535916        9.9454046657       26.8039770441
  C        -7.2846680607       10.9406524276       24.9578939929
  C        -2.0687728688       16.2922274060       34.8367165135
  S         5.4699599922       11.0203480039       10.7326753718
  C         4.9999795669        7.9670785234       10.6895642845
  H         7.1837149767        8.7361417061       30.7486330026
  H         5.7439058532        8.7659429126       31.6289203582
  C         6.1228368481        7.3493245653       29.9971080705
  H        -6.9571026513       11.0272017433       23.8740154730
  H        -7.2182252227       12.0218774537       25.1917827176
  C        -8.7679312136       10.5336772040       25.0978752557
  H        -1.8486219865       17.3651549326       34.7378682347
  C        -2.5347516093       15.9547252723       36.0604967495
  H         5.6985905500        8.4186983352       10.0206665052
  H         5.3642332149        6.9814499772       10.8749742629
  C         3.6129600894        7.6211124975       10.0475032009
  H         6.1499263494        7.2730326063       28.8943978575
  H         5.2210475020        6.8387120900       30.3480821318
  C         7.2063804855        6.3901427603       30.5324468971
  H        -9.3487177073       11.0423423909       24.3166512896
  H        -8.8842220102        9.4403549055       24.9800603704
  C        -9.4040909876       11.0613922572       26.3850901036
  S        -2.9844054129       14.3219786624       36.6125850194
  C        -2.8468794851       17.0076643901       37.0128786969
  H         2.7206228087        7.5785624116       10.6943259228
  H         3.3942104775        8.1941416109        9.1851821252
  H         3.5685182441        6.5918636274        9.5975345515
  H         6.9381731907        5.9876105913       31.5356256471
  H         8.2294836444        6.7718791931       30.5365703337
  H         7.3061745647        5.6746866097       29.6394253345
  H        -9.1325425565       10.4863282649       27.3048890206
  H       -10.5130298010       11.0510081027       26.4197131425
  H        -9.1617930484       12.1128638812       26.5984833270
  C        -3.5365764848       15.1688550484       38.0709718337
  N        -3.5044838050       16.5155646189       38.0386139405
  O        -2.6287860564       18.2460606196       36.7810850179
  S        -4.0297333704       14.3682820734       39.6016211601
  C        -3.9592544538       17.4534316863       39.1012736372
  H        -4.4241258962       18.3837721259       38.7432284722
  H        -4.7843219292       17.0717758120       39.7144955067
  C        -2.7409277727       17.7057267686       40.0004006827
  H        -1.8990322216       17.1059551337       39.6742312246
  H        -2.4491581937       18.7403185493       39.8822171620
  H        -3.0164609896       17.5073570326       41.0305767413
  H         7.8534065268       11.9468195818        3.4400624254
  C         8.5730772249       11.0765326134        3.5118465241
  H         7.9324517758       10.1432326542        3.4708152487
  C         9.3132488875       11.0763173504        4.8235271071
  C         9.5518383135       11.0838190210        2.4158886175
  C         8.4402401352       11.3432844494        6.0644603071
  H         9.7909854038       10.0831781158        4.9448605283
  H        10.1796321354       11.7495767480        4.8024947778
  H        10.3228484543       11.8870830706        2.5963385231
  H         8.9942348697       11.0873967729        1.5047963831
  H        10.0294218218       10.1262151099        2.5221242264
  C         7.4016494097       10.2935811713        6.2016449896
  H         9.0039928667       11.2268640424        6.9501221642
  H         8.0609943909       12.4572137419        6.0440479204
  C         6.5760473854       10.5092156945        7.4468245870
  H         7.8483111715        9.3162041328        6.4372618563
  H         6.6952339930       10.3124126908        5.3614825697
  C         5.2577716126       11.3292739296        7.2364268314
  H         7.1150425019       11.0816064436        8.1533092848
  H         6.3609550903        9.5960389699        7.9721698998
  C         4.0208127712       10.6051194204        6.7709312451
  H         5.0587092936       11.9500848913        8.1016156336
  H         5.4582214964       12.0509117848        6.4710933919
  C         2.7790003615       11.4828218795        6.6768082217
  H         3.8473942508        9.7620783393        7.4548635393
  H         4.2647022447       10.1069273677        5.8055171232
  C         3.0765047341       12.8794508016        6.1245799622
  C         2.4018796039       12.1013597520        8.0211302862
  C         1.6707252920       10.6757216906        5.9691635691
  C         2.9385234882       13.9163190738        6.9957688870
  C         3.5587796146       13.2392890958        4.9059579375
  C         2.4708033782       13.4260547754        8.2573026336
  C         2.0049771857       11.3643469911        9.1148269668
  H         2.0597348226       10.2827125298        5.0762849487
  H         1.4682993492        9.8711568403        6.5990171167
  C         0.3746477253       11.5168168788        5.7211436667
  S         3.5061736275       15.3937113003        6.3671098317
  C         3.8230086619       14.5528818133        4.8616855942
  H         3.6239059116       12.4105719556        4.2053645867
  C         2.1713655544       13.9719210276        9.5005111014
  H         1.8901235124       10.2933803731        8.9611850065
  C         1.6456408340       11.9023836473       10.3501190609
  H         0.6705931445       12.5582990899        5.3235325907
  H        -0.1342721436       11.6553986453        6.6256987310
  C        -0.6193685324       10.8793911128        4.7399605912
  C         4.3814165434       15.2550837127        3.6281670335
  C         1.7588998961       13.2383346440       10.6011926725
  H         2.1419330783       15.0528812941        9.6250811202
  C         1.2489490081       11.4409293511       11.5914539157
  H        -1.4268071418       11.5959151289        4.5454574976
  H        -1.0184429436        9.9553901159        5.2123681797
  C        -0.0588617703       10.6107679226        3.3075970683
  C         4.4752559279       16.6549689968        3.4164381719
  C         4.8053049628       14.3674752485        2.5274040696
  C         1.3837513236       13.8245251785       11.8835780159
  C         1.0307230473       12.4912789202       12.4431804001
  S         1.0962882599        9.8574823840       12.3071913624
  H         0.4924266753        9.7574844426        3.2926666807
  H         0.5350264355       11.4605274423        2.8931366556
  C        -1.2337067051       10.4532576911        2.2479798240
  N         4.1411046383       17.6292578531        4.2998288026
  C         4.7674696518       17.1804003395        2.1774347112
  C         5.1958674085       14.9546434616        1.3109847573
  H         4.8381005416       13.3213434294        2.6015724779
  C         0.1873291857       14.7710411277       11.9262807853
  C         2.6550782771       14.3453546247       12.6012234945
  C         0.6171392140       12.0045293581       13.6500398391
  C         0.6986354679       10.6218764143       13.7446217963
  H        -2.0052370969        9.8493939187        2.7004866800
  H        -1.7799575969       11.4417889631        1.9599939616
  C        -0.7130756877        9.8090904678        0.9954915485
  S         4.3205907248       19.0618721011        3.5999392053
  N         4.8135324158       18.5193299261        2.1628022850
  C         5.1359378059       16.4107565942        1.0414212721
  H         5.3554343800       14.3223180701        0.4520144298
  H         0.3255477616       15.6589223488       11.3406384845
  H         0.0177516309       15.1325779209       12.9409471898
  C        -1.1245395639       14.1366559632       11.4446678221
  H         3.5393453165       13.8040514921       12.1301428819
  H         2.7099297193       15.3843080391       12.3128429477
  C         2.7159441662       14.1731159313       14.1121814267
  H         0.3155764373       12.7082813934       14.4749145892
  C         0.3249446412        9.7611136867       14.9659193632
  H        -1.5112012001        9.3667337591        0.4210228831
  H        -0.1829931746        8.9082439747        1.3545564233
  C         0.1833448921       10.6158678102        0.0747911271
  C         5.3176548844       17.0400652564       -0.2295338964
  H        -0.9303872070       13.6608646319       10.4734613674
  H        -1.4814513268       13.4122526376       12.1912443031
  C        -2.3647158047       15.0560963626       11.0267010657
  H         2.9719638054       13.1636649812       14.4387070679
  H         1.7704062462       14.4340101520       14.5623893450
  C         3.7963008751       15.1032644969       14.6682579263
  C         0.2367259705        8.3275929517       14.9887165864
  C         0.0538466048       10.4744774580       16.3051303742
  H         0.5679100399       11.4456542167        0.7278112918
  H         1.0550883942       10.0175289532       -0.3019964401
  C        -0.6554673643       11.0390932408       -1.1334450541
  H         5.4222080531       18.0776687174       -0.1536155027
  C         5.4521925171       16.5293692825       -1.4704578109
  H        -2.1194613415       15.7308961367       10.2677603614
  H        -2.6344743620       15.8168328906       11.8132186338
  C        -3.5364317823       14.1806774839       10.6810517205
  H         3.3365460716       16.0810046915       14.7018001232
  H         3.9761636217       14.7941304526       15.7095395020
  C         5.1184397236       15.2148045776       13.9712431230
  N         0.4787677303        7.3809621171       13.9491251559
  C        -0.1755476562        7.6549571276       16.1434596204
  C        -0.2113002890        9.7730680434       17.4211650249
  H         0.0719378220       11.6117834030       16.2171035302
  H        -0.6855908650       10.2786188691       -1.9499929366
  H        -0.3371204452       12.0203899052       -1.5442654905
  H        -1.6666303663       11.1884865777       -0.8478037563
  S         5.6667044004       14.9305776206       -1.9533427722
  C         5.5647457684       17.5376096059       -2.5605747144
  H        -3.1257309816       13.3432495683       10.1149408228
  H        -3.9362896677       13.7745639820       11.5764889584
  C        -4.5767140614       14.8511503684        9.7341801674
  H         5.0530027564       15.3257415529       12.8855208544
  H         5.7702320830       14.2959481017       14.1551726952
  C         5.8536955545       16.4882817936       14.4253266629
  S         0.2938653695        5.8593520805       14.4805888802
  N        -0.1524345136        6.2520428782       16.0433730206
  C        -0.5309959046        8.2945231688       17.3596920065
  H        -0.3504237546       10.2259547872       18.3742350606
  C         5.9573265704       15.5856877392       -3.5622346296
  N         5.8962553498       16.8868491100       -3.6811310183
  O         5.4877078702       18.7750165980       -2.4542720197
  H        -5.2136100315       15.6846329566       10.1592884966
  H        -4.0336274482       15.1568669867        8.7897591955
  C        -5.4669185668       13.7522131830        9.2400376911
  H         5.2116149888       17.3588618818       14.6249267354
  H         6.3336955638       16.3417555752       15.3916852316
  C         7.0078632325       16.9691033950       13.4809407391
  C        -0.9626639106        7.5168986533       18.4709219223
  S         6.4248706524       14.5848937168       -5.0090803890
  C         6.1885250050       17.5646463621       -4.8777149247
  H        -5.0364513227       13.2979563562        8.3470542820
  H        -5.5339818557       12.9895608343       10.0037564108
  C        -6.8794870279       14.3171336348        8.8059022691
  H         6.6167059200       16.9727582298       12.3878186736
  H         7.9046748097       16.3684834246       13.5708974834
  C         7.5743184901       18.3531117330       13.8423044510
  H        -0.7649977472        6.4803291224       18.3976108761
  C        -1.2704716834        7.7734275348       19.7835437573
  H         7.0348208754       17.1104209593       -5.2899110010
  H         6.4780805985       18.6352842804       -4.7346339970
  C         4.8712204827       17.6150956527       -5.7018514195
  H        -7.2700883155       13.7119077550        8.0676506442
  H        -6.6588818272       15.1838065499        8.2649072705
  C        -7.8580933084       14.4297305298        9.9432081219
  H         8.2761950796       18.3750401226       13.0527095323
  H         6.8856865826       19.1886126703       13.7032319829
  C         8.2891927746       18.5724241137       15.2501701095
  S        -1.6896710309        9.3082748983       20.3874147122
  C        -1.0871525024        6.6996422160       20.7766379439
  H         4.1978276287       18.3963684208       -5.3108580830
  H         4.3438105540       16.6853022953       -5.7472020550
  H         5.1507120474       17.8216756861       -6.7229735921
  H        -8.6737731820       13.6761648814        9.9567509666
  H        -7.3829925927       14.2244407192       10.8828920389
  H        -8.3896979353       15.3955527259       10.1570888372
  H         7.5756410328       19.0846804437       15.9262507032
  H         8.6584234738       17.6169528489       15.6953531126
  H         9.1388793620       19.2456696256       15.1806813450
  C        -1.7061336179        8.5074602739       21.9656803653
  N        -1.4439621770        7.1767146084       21.9687489995
  O        -0.8539322572        5.5206585862       20.4479248261
  S        -2.5141174258        9.1893026374       23.4114206216
  C        -1.6139305634        6.3782489939       23.1156416771
  H        -1.7575628104        5.3804027918       22.6537707149
  H        -2.4597855682        6.5709920713       23.7700557025
  C        -0.3953696915        6.5411662548       24.0846813749
  H        -0.2862396900        5.5400426693       24.5937523516
  H        -0.6434838770        7.3598151037       24.8076597442
  H         0.4464366492        6.7653357093       23.4281183979
