352
i =
  H        -3.4403368501       14.3590605014       16.1786645989
  C        -3.0566825696       13.3044941672       16.1604083623
  H        -3.9461361825       12.6714951240       16.0961852660
  C        -2.1849202480       12.9756861318       17.3961467639
  C        -2.4214803590       13.1924509361       14.8237885128
  C        -2.9223487131       13.1360937672       18.7336892717
  H        -1.7659571529       11.9909256304       17.2508962906
  H        -1.3557101794       13.6260417078       17.5242090757
  H        -1.5070037702       13.8145730821       14.6429185442
  H        -2.1428240149       12.1310440637       14.7586139856
  H        -3.1299040240       13.3266832963       13.9935561076
  C        -1.8738738949       13.2747641812       19.7930862054
  H        -3.6074030085       12.3420123551       18.8517120170
  H        -3.5874308713       13.9708470243       18.7729300498
  C        -2.4995674667       13.2393204479       21.2328465647
  H        -1.1818798302       12.3931255053       19.7157388674
  H        -1.2149614760       14.1289041176       19.6766814678
  C        -1.5254732615       12.6573166374       22.2333590877
  H        -3.4223714969       12.7555275186       21.1584873212
  H        -2.7604439006       14.2479139449       21.6115169851
  C        -0.2156506558       13.4116707152       22.2327666988
  H        -1.9939921414       12.6754379989       23.2271948620
  H        -1.4776270547       11.5784132732       22.0128090229
  C         0.9334543912       12.6519080885       22.9719673701
  H         0.0959654146       13.8299513038       21.3115151406
  H        -0.5175161296       14.3476692483       22.7843582449
  C         1.2969528868       11.3158549345       22.3267307395
  C         0.4980845119       11.9532868205       24.2675213604
  C         2.2092058460       13.5623457070       23.0574995455
  C         1.1700363398       10.2456867229       23.1374666463
  C         1.8966753770       10.9559731336       21.0617423496
  C         0.6745513876       10.6382896720       24.3934955485
  C         0.0056801108       12.5988700751       25.4349397937
  H         2.6360444059       13.7155910705       22.1291631323
  H         1.9766231488       14.5289240052       23.5036087976
  C         3.4050526863       12.9895968175       23.8253127472
  S         1.4988565983        8.7825715178       22.3881494898
  C         2.0109749898        9.6106522698       20.9947548845
  H         2.0449708202       11.7535782587       20.3238853382
  C         0.3120021843        9.9644653812       25.5279083675
  H         0.1102356810       13.6871550173       25.4266503406
  C        -0.3414513940       11.9486819588       26.5690862133
  H         3.7801945264       12.2388374589       23.1250108546
  H         3.0692618156       12.5861153510       24.6980313559
  C         4.5479402107       14.0671394748       23.9531815607
  C         2.4759204274        8.9119165043       19.7385012333
  C        -0.2313701939       10.5725406733       26.6770713018
  H         0.4900483662        8.9033409195       25.6262736039
  C        -0.7871745949       12.3136905886       27.8423725944
  H         5.2385782122       13.6831928602       24.7219670955
  H         4.2406785818       15.0021795252       24.4864304024
  C         5.4222400345       14.4011103331       22.7318845326
  C         2.3293213184        7.5179920676       19.4791347792
  C         2.9491362307        9.7360864097       18.6282440012
  C        -0.6274180889        9.8031291423       27.9443825879
  C        -0.9240105172       11.1865880372       28.6168682407
  S        -1.1229871870       13.7788661987       28.7157745263
  H         6.1084326662       15.1842355448       23.0449513047
  H         4.9082240888       14.9034136988       21.8956699313
  C         6.4441049081       13.3751024584       22.1856228915
  N         2.0617338291        6.5736877221       20.5081478340
  C         2.5469281803        6.8949129099       18.2901496321
  C         3.1253829441        9.0912671699       17.4047013268
  H         3.2097203005       10.8212673943       18.7392959152
  C         0.4485888640        9.0131816645       28.6767600436
  C        -1.9342053333        8.9164446954       27.6636952497
  C        -1.3166644577       11.4374346707       29.9474165914
  C        -1.4181488255       12.8593663888       30.1552745483
  H         7.4177881279       13.8134360586       21.9426757143
  H         6.6037757693       12.5994547296       22.8717527775
  C         5.9450117475       12.7682672558       20.8869988853
  S         2.1605155348        5.0854879185       19.8705459310
  N         2.5103706900        5.4944602403       18.3352950881
  C         2.9425438165        7.6489904992       17.1327238789
  H         3.5317925045        9.7362679666       16.5829323544
  H         0.6361734231        8.0476772390       28.2040683181
  H        -0.0956374483        8.6999773645       29.5496900470
  C         1.6782454929        9.7976333769       29.1173069777
  H        -1.7377142491        8.2266361288       26.8112704440
  H        -2.3033248691        8.2802981891       28.5021624306
  C        -3.1259464585        9.8346390415       27.3009039134
  H        -1.4386691805       10.6136098424       30.6347208193
  C        -1.7713002795       13.5353918350       31.4550799408
  H         4.8725308053       12.5675210072       20.9065457516
  H         6.3837620569       11.8047299536       20.7995018859
  C         6.4248017154       13.5493996786       19.6082604726
  C         3.0958670218        7.0067403768       15.8831725232
  H         2.4654271713        9.7718395504       28.3098898058
  H         1.4778563894       10.8521914029       29.1890081491
  C         2.3422500354        9.2941925176       30.3770027404
  H        -2.8244313819       10.2960766509       26.3702733923
  H        -3.3330724837       10.6449874005       28.0513113151
  C        -4.4060724290        9.0820762681       27.1844514150
  C        -1.7803125063       14.8978917440       31.6641057234
  C        -2.1602920366       12.6697843104       32.6055075230
  H         5.9841758116       13.2704696741       18.6362427281
  H         6.1633225960       14.5754109851       19.6991904457
  C         7.9418506163       13.3659475726       19.4099761857
  H         2.7890010489        5.9994930919       15.8891260095
  C         3.5273011755        7.4095186843       14.6389682755
  H         2.3249453692        8.2344151599       30.4424602920
  H         1.7930782237        9.5867551302       31.2468151223
  C         3.8296832222        9.7438118423       30.4419141961
  H        -4.3385285984        8.5392300046       26.2725327485
  H        -4.7224686129        8.5447732677       28.0333971100
  C        -5.5456019553       10.1169496102       27.1437029119
  N        -1.3901421116       15.9287039419       30.8059962161
  C        -2.1306076298       15.4594917853       32.8666689141
  C        -2.5090537376       13.2457392178       33.8084231893
  H        -2.3670754625       11.6452083800       32.4951716216
  H         8.4950468962       14.2161748365       19.0058386862
  H         8.4648692934       13.1195185895       20.3181385264
  H         8.0304545236       12.4849456771       18.7551472726
  S         3.7410334749        8.9831375098       14.1049365068
  C         3.8440560766        6.3348090174       13.6768954554
  H         3.9518894170       10.6823877870       30.0037034339
  H         3.9648758729        9.9648865829       31.4981578189
  C         4.8333627156        8.7922620525       29.7877600482
  H        -5.2650335619       10.9398440864       26.4806275298
  H        -5.7838639830       10.5024885162       28.1717924640
  C        -6.9177498711        9.6252876441       26.6067138682
  S        -1.7691390014       17.3940034626       31.4051082450
  N        -2.2750991094       16.8293580870       32.8173248001
  C        -2.5114692399       14.7453154233       34.0258705131
  H        -2.6883148160       12.6295419101       34.6654805396
  C         4.3047011249        8.2375272426       12.5882316625
  N         4.2803919955        6.8685885889       12.5297377523
  O         3.6041344642        5.1608507917       13.8623677275
  H         5.6903600536        9.2985092011       29.5594271108
  H         4.4217818320        8.2842468506       28.8919780230
  C         5.1732189310        7.6267285770       30.7304010522
  H        -6.9888749352        8.5671636563       26.6417278825
  H        -7.5874928914       10.0752306873       27.3582375248
  C        -7.1735703466       10.1965881935       25.2121061828
  C        -2.7420560490       15.4833033167       35.2508035096
  S         4.6475134697        9.1014389829       11.0709635708
  C         4.1943559107        6.0921541124       11.2594829108
  H         5.5405077041        8.0277117771       31.6769445592
  H         4.3310949529        7.0245812904       30.9235744488
  C         6.1717836283        6.5817962487       30.1308399767
  H        -6.3206442293        9.8739057344       24.5455847869
  H        -7.1288369295       11.2785704578       25.1838452843
  C        -8.5956736855        9.7509824771       24.8150550439
  H        -2.3155482177       16.4954917477       35.2639054464
  C        -3.5053194779       15.2154741287       36.3718072250
  H         4.9796479144        6.3737208055       10.5481205107
  H         4.3305446334        5.0475749198       11.3811821965
  C         2.7198116673        6.1872213367       10.7187376095
  H         7.1049544522        7.1811830730       29.9038110651
  H         5.6460572727        6.1094824153       29.2996504607
  C         6.4389887660        5.4432009888       31.0683218364
  H        -8.9958084070       10.1848818154       23.9184030989
  H        -8.5443205153        8.6761429489       24.7061736129
  C        -9.6207928465       10.0097674236       25.9317215047
  S        -4.4223110981       13.8175194830       36.6376727372
  C        -3.5933444909       16.2039527336       37.4713225408
  H         2.3869463510        5.1909563193       10.5077358841
  H         1.9319586089        6.3971049735       11.4466733388
  H         2.6979230467        6.7970557289        9.8382351500
  H         7.3842649801        4.9446162878       30.7580426515
  H         5.6881151300        4.6718009833       30.9097000475
  H         6.4266354117        5.6930718528       32.1272749392
  H       -10.6115621451        9.9520133249       25.4872480368
  H        -9.6413251910       11.0857220581       26.1889978810
  H        -9.6181346174        9.3374399573       26.8198160236
  C        -4.8567203141       14.5106792325       38.2214442232
  N        -4.3521736702       15.7471798868       38.4539891571
  O        -2.9047105711       17.2468998696       37.4637686896
  S        -5.3474454269       13.5015063567       39.6376174965
  C        -4.5207840166       16.4310776272       39.7286818728
  H        -4.7178794221       17.4595722273       39.6293379398
  H        -5.4437314426       16.0765943563       40.1079064000
  C        -3.2882536901       16.3462898170       40.7332241291
  H        -2.4556594116       16.6724643139       40.1675218637
  H        -3.5228330876       17.0567107634       41.4727994276
  H        -3.1683453045       15.3811844891       41.1588795715
  H         7.1005495060       10.9178509004        2.9294274607
  C         7.7482672756       10.0761958591        3.1814062309
  H         7.0845977190        9.2114038405        3.3737434564
  C         8.5499229567       10.3088999334        4.4317479622
  C         8.6649731027       10.0057394704        1.9926473854
  C         7.8485520154       10.3480682268        5.8010397506
  H         9.4055401358        9.6397622847        4.5736031139
  H         9.0235628886       11.2649427816        4.3627458161
  H         9.5053876490        9.3761127940        2.1915016448
  H         9.1516860519       10.9169610503        1.5316380982
  H         8.0438430613        9.7013252360        1.1849094260
  C         7.3896181966        9.0671207400        6.4291721246
  H         8.3755460398       11.0035324191        6.4390392033
  H         6.8955507682       10.8365469930        5.5407045073
  C         6.6147537094        9.1713630763        7.7203659981
  H         8.2407886070        8.4641697991        6.6745926067
  H         6.8157756333        8.5225728911        5.6900219745
  C         5.3509236373       10.0126465354        7.6379022787
  H         7.2828688216        9.6562604190        8.3880879250
  H         6.3647419988        8.2684472664        8.2259729990
  C         4.1748647597        9.3599448229        6.8101147451
  H         4.9729037337       10.1273451779        8.6997451360
  H         5.5780010022       10.9580575837        7.1752375710
  C         2.8945840755       10.1818234817        6.6765374132
  H         3.8981131113        8.4537856045        7.3178826734
  H         4.4958299434        8.9589999717        5.8589749007
  C         3.2240573125       11.5463339968        6.0231266630
  C         2.3905879803       10.7887323776        7.9746166881
  C         1.8129644226        9.5228965478        5.8148280458
  C         2.8311595892       12.6281251883        6.8472865784
  C         3.8203947690       12.0800427675        4.8760866820
  C         2.2754437769       12.1590364151        8.0025128960
  C         1.9315682254       10.1294193558        9.1083208790
  H         2.2876144236        9.0245518295        4.9710133649
  H         1.4216612353        8.6978612141        6.3868426933
  C         0.7010932810       10.4358671976        5.3606388407
  S         2.8896320525       14.2164489598        6.0974480228
  C         3.7220045517       13.4439187210        4.7694659146
  H         4.2307042315       11.4331132786        4.0742676281
  C         1.8938883409       12.7217536439        9.1637915785
  H         1.9783603369        9.0442215458        8.9845290304
  C         1.4870880767       10.7004233819       10.2556162254
  H         0.9421056966       11.4196875924        4.9401514877
  H        -0.0914390807       10.6594507386        6.1415133968
  C        -0.1237495419        9.6973047857        4.2735524456
  C         4.0821669083       14.2286958594        3.5431058234
  C         1.4063407085       12.0450893962       10.3135638669
  H         1.7810468870       13.7865262498        9.2445110300
  C         1.0329533556       10.3445589772       11.5270904820
  H        -0.7299671076        8.9133624297        4.7107306250
  H         0.4442481591        9.1579617806        3.5814921768
  C        -1.1857465779       10.5817838622        3.4848925713
  C         4.1009589084       15.6359074461        3.4258322184
  C         4.5794271187       13.4638676232        2.3759453621
  C         1.0657646731       12.8048309450       11.5473787742
  C         0.8389582144       11.4983032331       12.2909560364
  S         0.7576270001        8.9378577654       12.3691134807
  H        -0.8469377314       11.5070104278        3.0045269735
  H        -1.8571622441       11.0907483565        4.1240123017
  C        -2.0778868501        9.7171463848        2.5774062838
  N         3.6181937221       16.5015505578        4.4270367638
  C         4.3357153798       16.3014445344        2.2316031886
  C         4.7825088627       14.1235850367        1.1875736366
  H         4.7935994645       12.4495892420        2.4080212186
  C        -0.1479410847       13.7610686138       11.3071037843
  C         2.3145681096       13.5790050175       12.1445088505
  C         0.5110735614       11.2618362097       13.6377976509
  C         0.4218646090        9.8899621375       13.7840419385
  H        -2.5370383459        9.0020601288        3.1960655654
  H        -2.8287414568       10.4326284740        2.1820477687
  C        -1.3782683367        9.0429085397        1.4814110282
  S         3.7217440878       18.0775886158        3.8441070142
  N         4.2371194075       17.6865326716        2.3104212848
  C         4.5906235162       15.5788543236        1.0203880668
  H         5.1375853961       13.5910432825        0.3505147201
  H         0.1266833127       14.5633649176       10.6173161879
  H        -0.3958029411       14.2532318282       12.3279804179
  C        -1.3121631273       13.0918517438       10.6379714469
  H         2.4937657685       14.3597344551       11.4253257928
  H         1.9922807445       14.0431592626       13.1228202457
  C         3.6145550531       12.6993894331       12.2850668806
  H         0.2726113298       12.0783312015       14.2630098080
  C         0.0631557404        9.1008171848       15.0562654230
  H        -2.2351243220        8.4870015567        1.1066109937
  H        -0.5808615686        8.3703620765        1.8946749900
  C        -0.8142684894       10.1046379860        0.5487188865
  C         4.8758621708       16.2617388215       -0.1848217498
  H        -0.9455711126       13.1334013401        9.6070965592
  H        -1.4899593477       12.0686430057       10.9036358566
  C        -2.5991551632       13.8546175928       10.5908891095
  H         4.1398300582       12.3970103487       11.3709129476
  H         3.4224539477       11.7611702430       12.8374170822
  C         4.7384560060       13.6222128049       12.7849542624
  C        -0.0166610732        7.6812676441       15.2176393252
  C        -0.0430163358        9.8587328754       16.2971896930
  H        -1.3891450868       11.0610855540        0.6068775855
  H         0.1791085604       10.3468363568        0.9271488459
  C        -0.8392140909        9.7375284163       -0.9368180367
  H         4.7847541069       17.3608766513        0.0039488382
  C         5.1577689011       15.9984207733       -1.4991543053
  H        -2.3042957023       14.7702454430       10.0747876532
  H        -2.8235217253       14.1767104266       11.6557200732
  C        -3.5961342613       13.0225080786        9.9315298515
  H         5.5689802433       13.5880425766       12.0908178074
  H         4.3685074126       14.6255415423       12.8282612969
  C         5.2356563470       13.1481561782       14.1453723572
  N         0.2315289973        6.7775979139       14.2548274350
  C        -0.3185639141        7.0943314754       16.4354386326
  C        -0.4568027867        9.2525153554       17.4876301195
  H        -0.1671902181       10.9236068659       16.1868687211
  H        -0.4204006024       10.5505274716       -1.5162224533
  H        -1.8435902154        9.5182578046       -1.2422806483
  H        -0.1957753607        8.8958828609       -1.0618482138
  S         5.5377454296       14.4400334277       -2.0693076582
  C         5.0868625869       17.0927335292       -2.5178880834
  H        -3.1654859967       12.4171390722        9.1245588211
  H        -4.0436528114       12.4356251237       10.7297570977
  C        -4.7407546757       13.8490493650        9.3272401699
  H         5.5020835449       12.0663299337       14.0334782329
  H         4.4819236117       13.2299050885       14.8805359176
  C         6.3891095386       13.8044553389       14.7853005850
  S         0.1220453758        5.2589747126       14.8819604593
  N        -0.5007156284        5.7112922925       16.3327375307
  C        -0.6020676214        7.7754360760       17.5674186047
  H        -0.6519677735        9.8371739095       18.3787844574
  C         5.6897041976       15.2168195042       -3.6733006079
  N         5.4010647166       16.5360300843       -3.7224986771
  O         4.5527251294       18.1569424195       -2.1917735199
  H        -5.0979813870       14.6703377759        9.9891144548
  H        -4.2853780306       14.4018965406        8.4796304583
  C        -5.8501854833       12.9519639731        8.8547673311
  H         6.7746279050       13.1746963170       15.5719398959
  H         7.1963834009       13.9043883038       13.9888919976
  C         5.9785407214       15.2245988785       15.3686492623
  C        -1.0200634837        7.0038435519       18.7514722517
  S         6.3428290652       14.3879930788       -5.0949141840
  C         5.3267652046       17.4113313279       -4.8705934615
  H        -5.4608205657       12.6947566362        7.8935330236
  H        -5.9526339929       12.2395151764        9.6771287535
  C        -7.1429947332       13.6352080661        8.6222405469
  H         5.5261465370       15.0387710029       16.3171431315
  H         5.1703084788       15.7724051127       14.8226333377
  C         7.1731610022       16.1555225238       15.5091876334
  H        -0.7590420335        5.9540184359       18.6493545469
  C        -1.4642160665        7.3951926520       19.9593811653
  H         6.1389108648       17.1948695867       -5.5273902870
  H         5.4133633671       18.4228338216       -4.6011240383
  C         4.0106024410       17.1218311374       -5.5930927226
  H        -7.7759135492       13.1264970381        7.8890059178
  H        -7.0813698868       14.6573037410        8.1999917452
  C        -8.0269445288       13.8950059893        9.8948313101
  H         6.7850701024       16.9878709609       16.1292664901
  H         8.0113208971       15.7611499740       16.0579871754
  C         7.7024055400       16.6095736657       14.1544702040
  S        -1.9325584005        8.9910265012       20.4601080736
  C        -1.6609815481        6.3245609940       20.9941508683
  H         3.8116106413       17.7354078910       -6.4652186433
  H         3.2043006998       17.0572291001       -4.8872070758
  H         4.0057718459       16.1562072494       -6.0265064603
  H        -8.9797824884       14.2676155425        9.4960361682
  H        -8.1111848646       12.9205041660       10.3800142333
  H        -7.5728162439       14.6545549030       10.5780630509
  H         6.9939405492       17.1898168308       13.5604986651
  H         8.5322671337       17.2737066074       14.2997816509
  H         8.2783131882       15.7322720880       13.7098041640
  C        -2.4211168835        8.1890598537       22.0077888043
  N        -2.2011140412        6.8746415683       22.1024516919
  O        -1.3024297679        5.1520237858       20.8506405282
  S        -2.9322997057        9.1096693042       23.4990936820
  C        -2.1747683877        5.9881830518       23.2497172770
  H        -2.5136814966        4.9645910532       23.1666890642
  H        -2.9067536908        6.3945793787       23.9224816484
  C        -0.8025632341        6.1055145676       23.9586076683
  H        -0.1096467159        5.6298355571       23.3483329188
  H        -0.6623093941        5.5412526219       24.8778726164
  H        -0.4542837400        7.1646658937       23.8657052910
