352
i =
  H        -3.7363048534       14.4237444521       16.9392048784
  C        -3.2406837905       13.5004111820       16.8135392115
  H        -3.8417596220       12.7675825035       17.3195682146
  C        -1.8952457223       13.5210108425       17.4742433954
  C        -3.1898834777       13.1852193253       15.2744945668
  C        -1.9281431671       13.9807396850       18.9074034018
  H        -1.6137349209       12.4715638251       17.5542265952
  H        -1.2245609838       14.1158072611       16.8354018096
  H        -2.3250401833       13.6198598523       14.7667952845
  H        -3.1804737589       12.1315652849       15.0424649925
  H        -4.1130331359       13.4720822944       14.9440027408
  C        -2.1289678854       12.8818180549       19.9096652829
  H        -2.7279790671       14.6854545454       19.0618985336
  H        -0.9705195708       14.4882706576       19.1655462125
  C        -2.4787980524       13.3543665611       21.3093131091
  H        -2.9345355257       12.1998593082       19.5319832574
  H        -1.1954058472       12.3401524601       19.8163800312
  C        -1.3940757480       13.0083203482       22.3370425673
  H        -3.4911126346       13.1456519988       21.5180304506
  H        -2.4969597744       14.4772812353       21.1938526485
  C        -0.1708517818       13.9558544233       22.4414140491
  H        -1.9491655199       12.8614367649       23.2704831547
  H        -1.1024026938       11.9795331522       22.0616431938
  C         1.0206816412       13.3279810208       23.1476749743
  H         0.1707661632       14.0600008565       21.4522030489
  H        -0.4766487209       14.9088285545       22.7430485091
  C         1.2603723406       11.9870828924       22.4159132314
  C         0.5454975544       12.6911388403       24.3745032527
  C         2.2889931442       14.3069459141       23.2862438996
  C         1.1458703949       10.9264310475       23.2901501491
  C         1.7046356688       11.6083676050       21.1496976029
  C         0.6711566856       11.3691053494       24.5089761558
  C         0.1200258341       13.3553967813       25.5201410413
  H         2.7048381980       14.7020137034       22.3099840947
  H         1.9104895667       15.1373197053       23.7633086239
  C         3.4205160288       13.5481624073       24.1484261283
  S         1.5818870725        9.4134514606       22.6313465193
  C         1.8987604097       10.2520708219       21.1406555518
  H         1.9496000673       12.3210740633       20.3895879294
  C         0.2572206469       10.7621559496       25.6181393073
  H         0.1677777639       14.3883825191       25.4090853967
  C        -0.3382473663       12.6726849433       26.6451565712
  H         3.3437731279       12.4399518371       24.1505402367
  H         3.0935610442       13.7454023739       25.1768488695
  C         4.8072301084       14.1473266390       23.9962175009
  C         2.4017215554        9.4026046774       19.8930660998
  C        -0.2232552261       11.3413971745       26.7869556160
  H         0.2278500702        9.6548214730       25.6540654656
  C        -0.7998247270       13.1032397279       27.9380067955
  H         5.4887494874       13.6209140728       24.6118637058
  H         4.8349267586       15.1367357628       24.5125851993
  C         5.3589772438       14.1651469784       22.5860348887
  C         2.3501558002        8.0014806661       19.7652365875
  C         2.9921035757       10.1996125583       18.8174340314
  C        -0.6570521601       10.6845809525       27.9905849323
  C        -0.9755303183       12.0062986221       28.7780278722
  S        -1.0862846435       14.6171154529       28.6768991204
  H         6.4388170033       14.5282316976       22.6589632581
  H         4.7160025299       14.8861165630       21.9724684131
  C         5.4535168755       12.8173048805       21.8338986135
  N         1.9873228909        7.0626789195       20.7461654373
  C         2.6760899013        7.3831032956       18.5330976120
  C         3.3852544832        9.5526281185       17.6302923176
  H         2.7906553577       11.2625092388       18.7050002290
  C         0.4235108196        9.8659428873       28.8094903029
  C        -1.8729327847        9.7612952531       27.7671519475
  C        -1.3102116942       12.4104652788       30.0637579553
  C        -1.3485628443       13.7776299500       30.2234511599
  H         6.1590105879       12.2437343653       22.3442721820
  H         4.4989856859       12.3022754114       21.9548311927
  C         5.8529312108       12.9786443882       20.3411201300
  S         2.1681343279        5.5215167761       20.1672589082
  N         2.4709256093        5.9968739145       18.5601909464
  C         3.2055809849        8.0754223758       17.4116481456
  H         3.9733231082       10.0321999204       16.8404763795
  H         0.7982132163        9.0365865001       28.1885176521
  H        -0.0354530913        9.3767286486       29.7028857506
  C         1.6033810056       10.7058678626       29.2119563755
  H        -1.6473310797        9.2121846764       26.8355762490
  H        -1.9208883213        9.0438628137       28.5520426799
  C        -3.1310065008       10.5273787349       27.4882012241
  H        -1.5070915948       11.6960434838       30.8930770271
  C        -1.5227876068       14.5181410220       31.4849337379
  H         5.2726224275       13.7481421301       19.7380510787
  H         5.5122684199       12.1069909467       19.8347418679
  C         7.4110547270       13.1197491078       20.0971196739
  C         3.4709042507        7.3433461243       16.2318966880
  H         1.8375383868       11.3446401058       28.3766048132
  H         1.3972966662       11.4278467661       29.9808033230
  C         2.6870915863        9.6864086833       29.6731664816
  H        -2.9893040730       11.0768372112       26.5478610216
  H        -3.3876067953       11.1971470302       28.3167296980
  C        -4.3444036605        9.5226216348       27.4136270980
  C        -1.5300924959       15.9309468437       31.6614500008
  C        -1.8106410877       13.7611569168       32.7853175407
  H         7.8758733651       13.7964120299       20.8349257716
  H         7.7888221007       12.0824252278       20.2927906280
  C         7.7220253190       13.6774639240       18.7444831565
  H         3.6238666825        6.3026224464       16.3358436798
  C         3.8369286665        7.8413026212       14.9587640354
  H         2.8669968141        8.9771556818       28.8170363967
  H         2.0638673399        9.2231412015       30.3923173244
  C         3.9716611438       10.3257543584       30.3755555061
  H        -4.1223240374        8.7755959480       26.6433015450
  H        -4.5563187433        8.9246603470       28.2636525648
  C        -5.6222313214       10.3872963924       27.0952906867
  N        -1.2759200558       16.8206874481       30.6624204235
  C        -1.8566291738       16.5652179597       32.8538688076
  C        -2.0669374602       14.4320950700       33.9554313643
  H        -1.7323633690       12.6940252054       32.9483341329
  H         6.9753535182       14.3664547732       18.2526477761
  H         8.6372418724       14.2075596857       18.9570953753
  H         7.9772358362       12.8771927956       18.0339263456
  S         4.0216639603        9.4793066529       14.3705615832
  C         3.9794403887        6.7792170251       13.9626492354
  H         4.3838758985       11.1901107607       29.9266512323
  H         3.8678044735       10.6024251151       31.3590949767
  C         5.1726688435        9.3559138072       30.3418233006
  H        -5.4231626214       11.2659051455       26.6023959551
  H        -6.1581183505       10.6673528695       27.9822997339
  C        -6.6737179517        9.5944056267       26.2136889908
  S        -1.5202373604       18.3685029655       31.1770868448
  N        -1.8032801854       17.9908900158       32.6671417108
  C        -2.1189107600       15.9107673201       34.0558967202
  H        -2.1014125146       13.8229297408       34.8666027479
  C         4.1498413998        8.7012937844       12.7407057438
  N         4.3140099321        7.3803193619       12.7587536712
  O         3.8902195116        5.5559854693       14.1518902280
  H         6.1597756493        9.7859796427       30.6635475969
  H         5.4355632270        9.0822791380       29.3260455896
  C         4.9415101851        8.1390299212       31.1536689919
  H        -6.1075285832        9.0765766837       25.4561450569
  H        -7.2954909412        9.0368591477       26.9048859135
  C        -7.5074925082       10.6409242979       25.3052401058
  C        -2.5821571092       16.6507148165       35.1958849827
  S         4.6287472077        9.6081961793       11.3099093269
  C         4.3410567124        6.7034514293       11.5116569642
  H         4.2753094244        8.3856128214       32.0416428332
  H         4.3509022559        7.4719657343       30.4733639452
  C         6.1808960392        7.3225795094       31.5569870221
  H        -6.9106083598       10.9050630774       24.5213969253
  H        -7.8020611671       11.4901687412       25.9751778376
  C        -8.8146237557       10.0209680330       24.7176973237
  H        -2.5277985342       17.7526390858       35.0159287154
  C        -3.0921752250       16.3260482101       36.4139298847
  H         5.0987807895        7.2057078842       10.9203609473
  H         4.8368184964        5.7161097909       11.7106768744
  C         3.0475364080        6.4332332403       10.7881378033
  H         6.0700211355        6.8093641875       32.4914220444
  H         6.9507605402        7.9981471053       31.8074161621
  C         6.8403788679        6.4593276749       30.4835529646
  H        -8.8579465695       10.4790716838       23.7224972212
  H        -8.5688603602        9.0047039311       24.5870689942
  C       -10.0498211701        9.9921928589       25.5968663261
  S        -3.5732270711       14.7719137924       37.0800785782
  C        -3.0924715544       17.4220916467       37.4008270924
  H         3.1520670444        6.4702183234        9.7341388264
  H         2.5154971081        5.4899028403       11.0214156707
  H         2.3228234081        7.1973403237       10.9251183785
  H         7.8192623359        6.1597422000       30.6966183726
  H         6.8917873238        6.9147320238       29.5130091046
  H         6.2334244765        5.5886191050       30.3987817598
  H        -9.8394646751        9.3702326740       26.4654162626
  H       -11.0011561799        9.5961638077       25.1989814052
  H       -10.1652167309       10.9478778943       26.1175198525
  C        -3.9677902686       15.6860066836       38.5123947769
  N        -3.6640332022       16.9793213449       38.4936430738
  O        -2.7804208807       18.5851175190       37.1364591444
  S        -4.3847823519       14.9672349373       40.0794125236
  C        -3.4474154480       17.7594105325       39.6956916547
  H        -3.4878839545       18.7699561320       39.4119759144
  H        -4.2801999742       17.5142803173       40.3723736225
  C        -2.1035129681       17.3739133137       40.3523269274
  H        -1.3287931702       17.2851902929       39.6058346274
  H        -1.7359981265       18.2017330493       40.8973052162
  H        -2.1342112523       16.5143993954       40.9324954562
  H         7.0395815350       10.6060692454        2.9747477567
  C         7.9858957445       10.0777256555        3.1946857775
  H         7.7067313589        9.0274495805        3.4612159804
  C         8.7653416677       10.6814460964        4.4481018975
  C         8.9746811476        9.9401151765        2.0100846385
  C         7.7819794731       10.8735708785        5.6462282167
  H         9.6148834699       10.1152188776        4.8136473178
  H         9.1777416216       11.7038164690        4.1890086509
  H         8.3717730463        9.6683651685        1.0667662421
  H         9.7026943507        9.1812402804        2.2209578526
  H         9.5507680467       10.8924913308        1.8790884356
  C         7.2559167676        9.4932592188        6.1275058160
  H         8.1742019799       11.4038271700        6.5222690091
  H         7.0060143184       11.5290142658        5.1701345840
  C         6.7950728770        9.4987677452        7.6167343109
  H         8.0554562081        8.7243638407        6.0679051644
  H         6.4594510573        9.1757973335        5.4935524261
  C         5.5395677384       10.2287329855        7.7403235231
  H         7.4619987382       10.0269895812        8.2883198068
  H         6.6384486985        8.5168371523        8.0223224213
  C         4.1995730534        9.6445419331        7.2763433818
  H         5.4332130693       10.3162116855        8.8813638510
  H         5.7529351479       11.2172468783        7.3434404377
  C         2.9645507825       10.5705468916        7.0944548716
  H         3.7729907060        8.9126907801        8.0337184623
  H         4.4073576023        9.1899003883        6.3423168429
  C         3.3153777282       11.8725135728        6.4000363867
  C         2.5666255127       11.3412302640        8.2826631370
  C         1.7666360464        9.8761115363        6.4320296293
  C         2.9087643188       13.0052655339        7.1046523583
  C         4.0245506853       12.2488109590        5.2531353905
  C         2.4288432081       12.6932253673        8.3608621783
  C         2.0395039622       10.7512653305        9.4270344336
  H         2.1876602174        9.3780298806        5.5261670536
  H         1.3946781586        9.0350411093        7.1444364468
  C         0.6482471365       10.8590356440        6.1171552305
  S         3.3515655115       14.4729428623        6.2850133998
  C         3.9550281924       13.5634287127        4.9362490652
  H         4.4357723964       11.4254465978        4.6126008129
  C         1.9651460514       13.3332669564        9.4440848301
  H         2.0854150213        9.7180506151        9.5061260131
  C         1.6360673985       11.4098655868       10.5829248174
  H         0.9674430703       11.8252753166        5.7732174153
  H        -0.0351366228       11.0316812523        6.9408520475
  C        -0.2552817370       10.1103869945        5.0513654586
  C         4.4811575343       14.1717140245        3.6729473567
  C         1.6432786087       12.7530189613       10.6774309020
  H         1.8994090337       14.4114782567        9.3319385018
  C         1.1349803948       11.0005268923       11.7912094394
  H        -1.1771702042       10.6870888640        4.9869949213
  H        -0.4376727229        9.0084121310        5.2420572429
  C         0.4893570789       10.3387806280        3.7085321636
  C         4.4985854922       15.5324903491        3.3074743032
  C         4.8629173796       13.3063572511        2.4923556358
  C         1.0796119376       13.3878573212       11.8956110262
  C         0.8666539972       12.0826633768       12.5992100380
  S         0.9972395905        9.4910709500       12.6035094517
  H         1.3000800151        9.6545476838        3.5978683199
  H         0.8826220601       11.3075155487        3.5796024568
  C        -0.5759351204       10.0467556538        2.6290734645
  N         4.3910569195       16.5069303398        4.3078280775
  C         4.8058714934       16.1050079494        2.0478902251
  C         5.1653131242       13.8413729418        1.2438276474
  H         4.9301023224       12.1657315473        2.4544450584
  C        -0.1934729692       14.2785925377       11.7024219982
  C         2.1515919399       14.2160425093       12.5721503587
  C         0.4737063439       11.6649385491       13.8870878949
  C         0.5504778489       10.3080221673       14.0795168504
  H        -1.3004638440        9.2513098739        2.9909089407
  H        -1.0827548173       11.0476130984        2.5056010444
  C        -0.0098115770        9.5942983854        1.2670134400
  S         4.3959428312       18.0142151636        3.6267396477
  N         4.7951007738       17.5443782765        2.0961236778
  C         5.1447186996       15.3077810672        0.9421162259
  H         5.2985420239       13.1390237097        0.4344848116
  H         0.1789493153       14.8322900553       10.8345448250
  H        -0.3716081569       14.8861105668       12.5776626760
  C        -1.4396056678       13.5332935903       11.2854467958
  H         2.5198245115       14.9100143821       11.7774439837
  H         1.6353832400       14.6464769958       13.4113994302
  C         3.2897176474       13.4378510558       13.1542740882
  H         0.2703913924       12.3318009463       14.6315445251
  C         0.1641237979        9.6210237704       15.3722728894
  H         0.6271722985        8.7728887969        1.4435401131
  H         0.5241884589       10.5136251845        0.9496257935
  C        -0.9830709072        9.3492955687        0.1764487888
  C         5.3689033091       15.9564832932       -0.3215136348
  H        -1.0687583089       12.7442278387       10.6059753989
  H        -1.8481719955       12.9691056965       12.1874750383
  C        -2.4830835177       14.4852425729       10.7515374316
  H         4.0565373291       13.1920674466       12.4166759281
  H         3.1134891113       12.4828017351       13.6140962289
  C         3.9858315463       14.1964955203       14.2954042719
  C         0.1392255067        8.2030282598       15.4854532625
  C        -0.1392565802       10.3857072479       16.6482044079
  H        -1.3455150518        8.2981112473        0.2395388767
  H        -1.9164047878        9.8454932495        0.3195541588
  C        -0.3223753920        9.5611036340       -1.1376761309
  H         5.1062945025       17.0130074361       -0.2554894472
  C         5.5089370335       15.5619108299       -1.6317544008
  H        -2.0299875885       15.3006668730       10.1931762667
  H        -3.0111630895       14.9015917676       11.6426657956
  C        -3.5382781606       13.8170810382        9.8693981017
  H         4.2654621497       15.1236493502       13.8327550080
  H         3.2305868686       14.5365659599       15.0102838009
  C         5.1657578398       13.4371928045       14.9221289594
  N         0.4059416375        7.3141179467       14.4984281253
  C        -0.1656905818        7.5298343524       16.6396947479
  C        -0.4122027430        9.7377663814       17.8284158582
  H        -0.1213339859       11.4434116469       16.5865876620
  H        -0.8667235982        8.9964581647       -1.8908687343
  H         0.7352392852        9.1850205899       -1.2193228902
  H        -0.3003478351       10.6502263619       -1.3422068169
  S         5.6270319694       13.9100887655       -2.2219491445
  C         5.6296475195       16.5542630885       -2.7057791943
  H        -3.8544479701       14.5555424522        9.1599520612
  H        -3.0032307970       13.0029343684        9.3159992646
  C        -4.7791783593       13.3765834670       10.6529957086
  H         4.8693208002       12.4439662003       15.0062030957
  H         5.4893614856       13.9127255707       15.8587193940
  C         6.3814389505       13.4953514603       14.0137087638
  S         0.2824962052        5.7849173307       15.0497400106
  N        -0.2753651288        6.1601543762       16.5333579196
  C        -0.4521891404        8.2393759318       17.9277624052
  H        -0.6973384336       10.4569177681       18.6524131009
  C         5.7022230612       14.5554841956       -3.8382024935
  N         5.8227878990       15.8998667343       -3.9043509511
  O         5.5923216816       17.7701039938       -2.4918787738
  H        -4.3103099022       12.7121002366       11.3844477424
  H        -5.1123691314       14.2875387530       11.1144650413
  C        -5.9399058786       12.7254768360        9.8992485176
  H         7.2231670961       13.0842778704       14.5422768872
  H         6.2932177365       12.9616802592       13.0061487892
  C         6.8432743931       15.0149049993       13.7092673414
  C        -0.8046428564        7.4248050095       19.0618563763
  S         6.2891447296       13.6726405530       -5.2443797398
  C         5.8947748983       16.6820047404       -5.1812396855
  H        -5.4949476485       11.9375271476        9.3754530963
  H        -6.6239988211       12.2429352900       10.5585786093
  C        -6.7912474301       13.5806037418        8.9790027740
  H         6.2654175413       15.4195055690       12.8883080101
  H         7.8544347751       14.9628368560       13.3395529693
  C         6.6819982300       16.0997153216       14.7585541504
  H        -0.5551991473        6.4107892312       19.0520030234
  C        -1.2680059910        7.7163222197       20.2869745156
  H         6.4488723234       16.1290582336       -5.9243889400
  H         6.4460598560       17.5929436288       -4.9779920894
  C         4.4558061899       16.9693170206       -5.5982860685
  H        -7.0703507298       13.0002134229        8.0885452422
  H        -6.2506405651       14.4301941347        8.6759326965
  C        -8.0609724058       14.1395372919        9.7212564732
  H         5.6134007173       16.3500252322       14.7154528829
  H         6.9336760330       15.8607830338       15.7744001290
  C         7.5668271274       17.2858439247       14.4582126625
  S        -1.8526075130        9.2848050180       20.7447909172
  C        -1.4222505029        6.6700788679       21.3141635119
  H         3.8713833905       16.1573072547       -5.2872083805
  H         4.2159931430       17.1135745500       -6.6007079494
  H         4.1115984001       17.8427786212       -4.9806783474
  H        -8.8152773443       13.3875837866        9.9980445783
  H        -7.8016325713       14.5688392533       10.6282403903
  H        -8.5321607017       14.8333912132        9.0498079731
  H         7.2160054977       18.2537833468       14.8933647225
  H         8.6226918584       17.0452401939       14.7031794895
  H         7.6125939737       17.3329256878       13.3812168226
  C        -2.1866377808        8.5882383364       22.3590880165
  N        -1.9897191422        7.1938460797       22.4465028383
  O        -1.1494537731        5.4519088808       21.1275004863
  S        -2.6094484545        9.5218514278       23.8232346521
  C        -2.2086603563        6.3370302133       23.6420359792
  H        -2.3077533949        5.2322878057       23.4603498495
  H        -3.1604841607        6.7251364095       24.0559148096
  C        -1.1119254911        6.5455657918       24.7266661610
  H        -0.2487249378        5.9567304509       24.4249653505
  H        -1.4347643122        6.1091333282       25.6491952167
  H        -0.8812958460        7.5429335065       24.8967593382
