352
i =
  H        -3.9779711386       14.7379255308       16.3138008057
  C        -3.4251514220       13.8511259264       16.3781615032
  H        -4.0311237481       12.9510916198       16.5142577183
  C        -2.5638011110       13.9924237580       17.5867535266
  C        -2.6021484018       13.8641359769       15.0287041152
  C        -3.1492563591       13.6798055413       18.9385769208
  H        -1.6309547297       13.4501106850       17.5334679911
  H        -2.2363738106       15.0485653286       17.6553509792
  H        -2.0225397546       14.7907626326       14.9358272437
  H        -1.8547676386       13.0763551723       14.9420324839
  H        -3.2728403497       13.7135437686       14.1574183960
  C        -2.1095722669       13.1912529384       19.9021820027
  H        -3.9656606498       12.9404739610       18.8851568404
  H        -3.5769674677       14.5559332967       19.2790500090
  C        -2.5664152409       13.2342631507       21.3451165920
  H        -1.9270757614       12.1306406061       19.5596446535
  H        -1.2524671566       13.7472953012       19.6906981179
  C        -1.5641539672       12.5700056634       22.2600022587
  H        -3.5139077373       12.7774931825       21.5320227644
  H        -2.5119822483       14.3258348406       21.6483547182
  C        -0.3023310012       13.4540787524       22.5039291977
  H        -1.9463742887       12.3143993822       23.2472819091
  H        -1.3419114214       11.6722546669       21.7009601311
  C         0.8615551132       12.6903794830       23.1785241955
  H         0.0863355173       13.9653434508       21.5950367630
  H        -0.5614006328       14.3005078288       23.0732723718
  C         1.2163662971       11.3482361179       22.5249170819
  C         0.5083828018       11.9856646371       24.4746469602
  C         2.1096378615       13.4913276853       23.1169844170
  C         1.1031399651       10.2384806840       23.3457742899
  C         1.6555640466       11.0310691170       21.2629522367
  C         0.5409940582       10.6611420150       24.5723052875
  C         0.1059800264       12.6630226714       25.5909742928
  H         2.1610717214       13.7895736536       22.0415535317
  H         2.0267837290       14.4688119925       23.6866937679
  C         3.3345406271       12.8681525735       23.6645100508
  S         1.5031734714        8.7696164834       22.6227142279
  C         1.8444230651        9.6852830216       21.1589826355
  H         1.8191685897       11.8262113472       20.5846713628
  C         0.1670714593       10.0909350094       25.7031242343
  H         0.1301865132       13.7819310687       25.6477031178
  C        -0.2225712462       12.0546429593       26.7534002631
  H         3.8001079317       12.1940205760       22.9796709427
  H         3.1984177349       12.3065801125       24.5402654957
  C         4.4019647930       13.9541816552       24.0615269468
  C         2.3316352189        8.8877007441       19.9164265256
  C        -0.2237399708       10.7255022903       26.8974311341
  H         0.1494680341        8.9901225767       25.7331703835
  C        -0.6317909655       12.4617444349       28.0075543910
  H         5.0478075592       13.4160182822       24.7455368997
  H         3.8598148619       14.6972179513       24.6100036180
  C         5.2968994776       14.5588880813       22.9841460779
  C         2.3546748719        7.4835920889       19.8304333773
  C         2.6824366841        9.7171673063       18.7386092169
  C        -0.6162403011       10.0202595542       28.1634278052
  C        -0.8193871974       11.4164070318       28.8498597086
  S        -0.9649464657       13.9893451490       28.6747430440
  H         5.3875562165       15.5932221806       23.2638222587
  H         4.6763331742       14.5871593853       22.1249732267
  C         6.7108949580       13.8635456000       22.7177358089
  N         1.8918027858        6.6012962660       20.8045052218
  C         2.5786911012        6.8829090735       18.5865100768
  C         2.9233238844        9.0592982244       17.5423477329
  H         2.7697504980       10.8512440333       18.7568047504
  C         0.4329255749        9.2235113691       28.9435798646
  C        -1.9357942135        9.3163994263       28.0143927096
  C        -1.1644959354       11.8414960389       30.1226532665
  C        -1.2253133275       13.2045461847       30.1939904569
  H         7.4167966083       14.6647749022       22.3149606996
  H         7.1116264737       13.6245370307       23.6974640587
  C         6.7149934258       12.6297185153       21.8084060635
  S         1.9995917218        5.1118806101       20.1548535263
  N         2.4722331698        5.4613531071       18.6368879901
  C         2.9497450311        7.6005232596       17.3719305702
  H         3.1869052075        9.6567323148       16.7235306630
  H         0.7142207793        8.3715348887       28.3426968938
  H        -0.0260580731        8.8160601128       29.8171209168
  C         1.7076614102       10.0187282273       29.4231896960
  H        -1.8454008658        8.4309409155       27.3839453910
  H        -2.3037553269        8.9681095249       28.9695150960
  C        -3.1531172303       10.0518036728       27.5691037782
  H        -1.1853917350       11.1562088499       30.9130717689
  C        -1.5102726458       14.0460312217       31.5113652223
  H         6.2523411248       11.7535579423       22.3232494829
  H         7.7427332763       12.4392779852       21.6869840482
  C         6.2422057624       12.8762300934       20.4060966590
  C         3.2035923245        6.9648809513       16.1453175957
  H         2.0316743986       10.6226392967       28.5853106974
  H         1.3843782773       10.6535007599       30.2641697236
  C         2.7641379774        8.9921185401       29.9213520214
  H        -2.9321919644       10.6914720071       26.6854698069
  H        -3.5259611808       10.7550518181       28.3479330327
  C        -4.3848831214        9.2403163747       27.2159518719
  C        -1.5610972380       15.4718102349       31.5838384042
  C        -1.9591793656       13.3402955816       32.7432763236
  H         5.5794075440       12.1138443413       20.0585940695
  H         5.7808933763       13.8330824287       20.2601739445
  C         7.3403178410       12.7183871021       19.3507694378
  H         3.1144711922        5.8890640057       16.1545801208
  C         3.5171623848        7.3660410853       14.9076824107
  H         3.0675987626        8.3081723100       29.1129082673
  H         2.3397402038        8.5079439888       30.7541551039
  C         4.0482487040        9.6756878708       30.4483506878
  H        -4.2408409264        8.5796750194       26.3709696213
  H        -4.6510262053        8.6465623764       28.1335604776
  C        -5.5092391163       10.2400216912       26.9114527025
  N        -1.3313634227       16.2588177591       30.5019919887
  C        -1.6712639874       16.1671393752       32.7517403573
  C        -2.0788048618       14.0327124669       33.9576014323
  H        -1.9425397364       12.2554818087       32.7984847194
  H         6.7953362793       12.5804602434       18.3820898078
  H         7.9882596569       13.5760293632       19.2934625418
  H         7.9723599068       11.8030157594       19.4573807933
  S         3.8024156265        8.9857879262       14.3716298819
  C         3.5634043067        6.3231382069       13.8078595109
  H         4.3681607709       10.5361857851       29.7928674170
  H         3.9670894020       10.0819246046       31.4351590053
  C         5.1255098500        8.5446479274       30.5028658537
  H        -5.0611184721       10.8603090360       26.1104280677
  H        -5.6756169242       10.8656039310       27.7769854750
  C        -6.8169312160        9.6822687291       26.2230453134
  S        -1.4320121509       17.8137109406       30.9066011802
  N        -1.6455931753       17.5092527300       32.5166822963
  C        -1.9486599729       15.5062535540       33.9566622224
  H        -2.2321580590       13.4170487080       34.9011119570
  C         3.8775007210        8.3318584813       12.7540696629
  N         3.8392285411        7.0043548473       12.6431073778
  O         3.2956851586        5.1517459096       13.8747432342
  H         6.0841994675        8.8773068728       30.6931499031
  H         5.1411655584        8.0832258156       29.5201410148
  C         4.9220352617        7.4255663966       31.5015034462
  H        -6.4426197337        8.8624637624       25.5505504318
  H        -7.3219481302        9.1587820344       27.0300279870
  C        -7.6846075554       10.6498530748       25.3708587601
  C        -2.2527926754       16.3549012838       35.1333654294
  S         4.3637889650        9.3180700197       11.3217655304
  C         3.7840255812        6.2601704691       11.3643847042
  H         5.6532161944        7.6595125822       32.2839898196
  H         3.9247807591        7.4544416690       31.8744668351
  C         5.2085314920        5.9506597461       31.0119549821
  H        -7.1756129396       11.1050975926       24.5042319237
  H        -8.0346978421       11.4072636427       26.0632930232
  C        -8.8730363724       10.0131561765       24.7707618642
  H        -2.0564792273       17.4196318586       35.0806487518
  C        -2.8826721643       15.9822100969       36.2810130935
  H         4.1735987180        6.8923084792       10.6023726306
  H         4.4427997111        5.3874529775       11.5069137009
  C         2.2888695690        5.9312263792       10.9834503246
  H         4.7901699715        5.8033154446       30.0895542136
  H         4.7535389324        5.2448643988       31.6046681005
  C         6.6931027596        5.6803581035       31.1408862450
  H        -9.1719421972       10.4348783964       23.8471607350
  H        -8.4801423384        8.9456489401       24.6058968428
  C       -10.0472552092        9.8637480348       25.8020733071
  S        -3.3565344098       14.3488313150       36.7933887275
  C        -3.0353790108       17.0508759863       37.2697526616
  H         1.6933427705        5.5506256920       11.8553443099
  H         1.7699615754        6.8104646506       10.6792805915
  H         2.3327253346        5.3472061359       10.0666973000
  H         6.9940368621        5.7222687108       32.2167007599
  H         7.2326298157        6.4263890130       30.5783125191
  H         7.0009680594        4.7423826265       30.7014902902
  H        -9.7429527632        9.3441096862       26.7548072670
  H       -10.9619620377        9.3412011462       25.3668201238
  H       -10.2266488179       10.9298880789       26.0527412900
  C        -3.9184546618       15.1506779655       38.2624395760
  N        -3.6657520382       16.5146397464       38.2610312822
  O        -2.7552368619       18.2549049943       37.1128330299
  S        -4.7220418717       14.4633769913       39.7434411004
  C        -3.8876576086       17.3682339595       39.4219445926
  H        -4.1281740378       18.4222405947       39.1785176830
  H        -4.7130803646       17.0725260021       40.0919098489
  C        -2.6025213890       17.3573850907       40.2122972194
  H        -1.9044027400       16.5154102329       39.9457309379
  H        -2.2096814423       18.3286297626       40.0157174548
  H        -2.7344541810       17.3961897193       41.2401751133
  H         7.0168880910       10.9577113168        4.0211118723
  C         7.6588842940       10.0937701410        3.9822461247
  H         7.0661421910        9.3036116715        4.0899054990
  C         8.7436038571       10.2415319191        5.0257835095
  C         8.2754063348       10.0393209021        2.5645604910
  C         8.0835902594       10.3357895745        6.4586581881
  H         9.3693457056        9.3642726689        4.9949724793
  H         9.3716347404       11.1662705421        4.8244114848
  H         8.8642332288       10.9048141570        2.5041810957
  H         7.5234945754       10.2905670138        1.7941539205
  H         8.7732514723        9.1394697910        2.1963633071
  C         7.3413069113        9.1334553764        6.9970712849
  H         8.9577932655       10.5117883911        7.0593902768
  H         7.5966840861       11.2865831385        6.5575645868
  C         6.4138902102        9.4533966240        8.2060773711
  H         8.0513247047        8.3321218447        7.1131292029
  H         6.5969181529        8.7997233994        6.2965889442
  C         5.1484687607       10.2394662049        7.8675734424
  H         6.9956371799        9.9718551897        8.9666460090
  H         6.0646998967        8.5983388007        8.7631326119
  C         3.9737977004        9.4131669769        7.2815043242
  H         4.8055759483       10.8152012738        8.7363775383
  H         5.5226345209       10.9562228968        7.1307857753
  C         2.6844770664       10.3880753647        6.9852179375
  H         3.6743317975        8.6082845284        7.9337534345
  H         4.1502416431        8.9034925441        6.3585741647
  C         3.0570081245       11.7409972858        6.3522850166
  C         2.1670476135       11.0840857087        8.1837497170
  C         1.5482441203        9.7213995710        6.1367494703
  C         2.6600826744       12.8246204755        7.1152558574
  C         3.5411311331       12.1364312468        5.0525364252
  C         2.1810968781       12.4205438137        8.2964982816
  C         1.8225608993       10.4696990456        9.3797509837
  H         2.0021077534        9.4068286456        5.1976745624
  H         1.1733276322        8.8741255275        6.7473265265
  C         0.2458967121       10.5525657939        5.8638286866
  S         3.0864931121       14.3418417098        6.4616417220
  C         3.5220678791       13.5028324976        4.9488737108
  H         3.7845246367       11.4320257017        4.2471508419
  C         1.8983185011       13.0208506084        9.4777009994
  H         1.8951138858        9.4089368068        9.3964890275
  C         1.4172104804       11.0227848696       10.5146554995
  H         0.4519425177       11.5274317248        5.4356086798
  H        -0.3467302726       10.7834143470        6.7838413946
  C        -0.6921862580        9.7696114503        4.9433923583
  C         4.0074589446       14.3600875396        3.7836945083
  C         1.4715146131       12.3411113375       10.6404507741
  H         1.9872897664       14.0956715233        9.4943982384
  C         0.9567524544       10.5547538983       11.7899470053
  H        -1.4536537660        9.3021746824        5.5789228419
  H        -0.1570695633        8.9408232494        4.5407804392
  C        -1.3169777604       10.5695021888        3.8239449847
  C         3.9871629912       15.7383758351        3.6760499318
  C         4.4476708943       13.6353166935        2.5416038689
  C         1.0607103354       13.0528677047       11.9244249043
  C         0.7515985620       11.6767901375       12.6027477814
  S         0.6874022642        8.9866198278       12.5065893334
  H        -0.5180846145       11.2368433335        3.5061898604
  H        -2.0380748797       11.1914407115        4.2699960465
  C        -1.8443382827        9.7896609399        2.6022881483
  N         3.6434638828       16.6427192983        4.7187869281
  C         4.2512332875       16.3858954987        2.4443492946
  C         4.7515808476       14.3032693019        1.3566235030
  H         4.4466230710       12.5601622545        2.5376635443
  C        -0.2407258253       13.9877833212       11.8139257679
  C         2.1982701245       13.8620392049       12.6330607135
  C         0.3107529465       11.3196710110       13.8783409547
  C         0.3574112055        9.9327327153       13.9573467831
  H        -2.4133498846        9.0289276705        3.1159204098
  H        -2.5626758530       10.4294413886        2.1213631421
  C        -0.8032876318        9.1844652530        1.5442188850
  S         3.7084864210       18.1455443472        4.1068631394
  N         4.1369184028       17.8144423743        2.5794668775
  C         4.7342014378       15.7629883109        1.2491858149
  H         5.0789864542       13.7067251822        0.5332387554
  H        -0.0271192695       14.6061661087       11.0074719610
  H        -0.4888471516       14.5672601536       12.6811753936
  C        -1.4399580567       13.1904637119       11.4249027788
  H         2.5133473953       14.5568451876       11.9226057376
  H         1.8665355797       14.4400344722       13.5610142105
  C         3.4588395892       13.0677397014       13.0486928827
  H         0.1170710995       12.0594966954       14.6204961790
  C        -0.0390479654        9.1727164361       15.2199932147
  H        -1.2464353443        8.2605408949        1.2352679262
  H         0.0662713147        8.8218820689        2.0379360309
  C        -0.4017715624       10.1851722862        0.4301319825
  C         5.0055491610       16.5045903163        0.0446623765
  H        -1.3148357510       12.5118663533       10.5686155970
  H        -1.7748042808       12.6075016153       12.2508941739
  C        -2.6207256466       14.0712256201       11.0702427281
  H         3.9298282135       12.4168711630       12.2796413243
  H         3.2566195310       12.3676086842       13.8573827043
  C         4.6322192389       13.9407994789       13.4699795926
  C        -0.1231613822        7.7784948516       15.3451184706
  C        -0.1976578063        9.9771559560       16.4503981090
  H        -0.5036309149       11.1960038466        0.8786537617
  H         0.6928308398       10.1221367684        0.1811652993
  C        -1.1845954869       10.1786316272       -0.9217946164
  H         4.8004349557       17.6132386861        0.1745731980
  C         5.2983351262       16.1073106703       -1.2647042034
  H        -2.3670636434       14.4825997420       10.0498881349
  H        -2.8358563358       14.9317909346       11.7034882350
  C        -3.8661656117       13.3593002422       10.7628162020
  H         5.1964731154       14.2823978431       12.6010689565
  H         4.3848603178       14.9200019645       13.8571934371
  C         5.5175255015       13.3141452195       14.4860416036
  N         0.0486302907        6.8560830920       14.3573756493
  C        -0.4382236152        7.1739464704       16.5677634070
  C        -0.4636563303        9.4049998978       17.6784471224
  H        -0.2518829548       11.0649272086       16.3930863008
  H        -0.6039052420       10.8081765304       -1.6925375196
  H        -2.1394207930       10.7165170229       -0.8284007503
  H        -1.2738530916        9.1743419252       -1.3385238825
  S         5.6994412064       14.5159060015       -1.7384676261
  C         5.2481755266       17.1418305668       -2.2797898123
  H        -3.4838976100       12.4987274717       10.1644482123
  H        -4.3178522463       13.0006475607       11.7168891234
  C        -4.8467808488       14.1956998343        9.9478420934
  H         5.4598267080       12.1620527979       14.3774077988
  H         5.1317371918       13.5888247778       15.4894414942
  C         6.9764190538       13.8026613359       14.4404157536
  S        -0.1941521522        5.3474363516       14.9522267276
  N        -0.5487807451        5.7849804233       16.4395139823
  C        -0.6515667637        7.8981253366       17.7808943727
  H        -0.7776391239       10.0837709707       18.4780886702
  C         5.6818313508       15.2491283315       -3.4302976351
  N         5.5623885335       16.6249205364       -3.4489336493
  O         4.8965156677       18.3096727467       -2.0503293962
  H        -5.2876418840       15.0363955710       10.5317000992
  H        -4.2361716188       14.7067800900        9.1382673213
  C        -5.9959209056       13.4528169040        9.2591201997
  H         7.5468342140       12.8779857764       14.5314223618
  H         7.3297256636       14.2466446767       13.4863185376
  C         7.3148363053       14.7330123800       15.6003356998
  C        -0.9849635990        7.2610192204       19.0429492097
  S         6.1598091052       14.4598396538       -4.9081817107
  C         5.4262860436       17.4445591908       -4.7137310784
  H        -5.6996880755       13.3102810563        8.2387813853
  H        -6.2928593637       12.6144090864        9.7738592634
  C        -7.2332575536       14.2649692013        9.1397151663
  H         8.0634665965       14.2321527057       16.1905470883
  H         6.4757358742       14.9194125982       16.3147250357
  C         7.9810197397       16.0066095467       15.1432850870
  H        -0.5466582475        6.3061106916       19.0915545182
  C        -1.5840481274        7.6564675707       20.2105282741
  H         6.1365064927       17.0850349338       -5.4308937764
  H         5.6637460830       18.5118186649       -4.4050881717
  C         3.9762825139       17.4210334021       -5.3054150494
  H        -7.8647748562       14.0733863430        8.2023307860
  H        -7.0338462897       15.3260209474        9.1958638847
  C        -8.1555261056       13.7731427434       10.2409764317
  H         8.4617415654       16.4106740951       15.9871923776
  H         8.7452262787       15.7567248513       14.4238668596
  C         7.0357653109       17.0241011006       14.4973815391
  S        -2.0588468663        9.2174866647       20.7282750450
  C        -1.6487218509        6.6129959736       21.2734115099
  H         3.2805072021       17.6298783693       -4.4136235887
  H         3.7347808051       16.5521292472       -5.8928403745
  H         3.9421916378       18.3188128333       -6.0043071350
  H        -8.4493771141       12.7028421379       10.1599334256
  H        -7.6752719019       13.9070566048       11.2577151359
  H        -8.9744914162       14.4790137112       10.2505613685
  H         6.5372277223       16.6968006563       13.5677515326
  H         6.1165808319       17.0216643961       15.1323150921
  H         7.5422987702       18.0154784595       14.3899487188
  C        -2.3882032693        8.5350233805       22.2338871372
  N        -2.1601222539        7.1789717109       22.3753857157
  O        -1.3379355916        5.4124141069       21.1170429968
  S        -2.8214967626        9.4040015436       23.7264779632
  C        -2.3817148462        6.4231985212       23.6208685507
  H        -2.4441995624        5.3736985057       23.3674547751
  H        -3.3352371302        6.6534953680       24.1790000804
  C        -1.1848771183        6.5189567593       24.5596168771
  H        -0.1990362423        6.1866947111       24.1939889866
  H        -1.4230351695        5.8671788280       25.3963231754
  H        -1.0413790190        7.5938631118       24.9220449543
