352
i =
  H        -3.9836195554       13.9829576379       16.6484710950
  C        -3.4121318064       13.1490666204       16.4072587398
  H        -4.0327304430       12.2904503547       16.5528047370
  C        -2.2491489844       13.0854266983       17.4586453577
  C        -2.9479948454       13.1812133796       14.9935667101
  C        -2.7636943880       13.5952180444       18.7969123501
  H        -1.7582751856       12.1566881899       17.6138269168
  H        -1.5702600979       13.8384566835       17.0266691210
  H        -2.6872255080       14.2080348613       14.7332845963
  H        -2.0232613699       12.7014718138       14.8367723511
  H        -3.7036500182       12.7036352942       14.2724659115
  C        -1.7852073455       13.3244244604       19.9219416528
  H        -3.6470969568       13.0492909967       19.0444281939
  H        -2.9852573771       14.6132861913       18.6969971061
  C        -2.3282859169       13.6188071087       21.3844926406
  H        -1.4223109234       12.2837138456       19.9667393195
  H        -0.8535868938       13.8905348816       19.7610846671
  C        -1.3583176498       12.9308961481       22.4052649979
  H        -3.2874726346       13.2020232031       21.4438890175
  H        -2.5060465292       14.6916731201       21.5394075653
  C        -0.0959185868       13.8084396516       22.7985509848
  H        -1.9608548328       12.6256963946       23.3129407062
  H        -0.9114348709       12.0200094193       22.0337026994
  C         1.0023610395       13.0390314378       23.6171809403
  H         0.4071281464       14.2589378425       21.9250008264
  H        -0.4488745894       14.6664650132       23.3885170854
  C         1.3956655357       11.7062600400       22.9927536892
  C         0.5267882058       12.4227997661       24.9675053946
  C         2.1529447490       13.9995471389       23.7963745954
  C         1.2540091541       10.6448146653       23.8683049054
  C         1.8940944463       11.3033711786       21.7244383257
  C         0.6236538162       11.0599962433       25.0415906684
  C         0.1154599644       12.9757583870       26.1477482890
  H         2.1878907015       14.5590114557       22.8817855166
  H         1.9513102356       14.7187807085       24.5971189456
  C         3.4122359373       13.2482968723       24.1539584895
  S         1.7591821876        9.1139307973       23.1619318815
  C         2.0807683276        9.9638534880       21.7182180867
  H         1.9705487224       12.0451813397       20.9755212340
  C         0.2168381693       10.3795235340       26.1761779550
  H         0.1014168205       14.0643430969       26.1910559994
  C        -0.2067401101       12.3236614806       27.2942022191
  H         3.6858474437       12.5465836633       23.2985089951
  H         3.0248360588       12.7486658852       24.9768559993
  C         4.6696081874       14.0305828612       24.5969343905
  C         2.5499410773        9.2912720219       20.4450231380
  C        -0.1393498108       11.0161491999       27.3827986617
  H         0.3995074414        9.3793335874       26.2552617618
  C        -0.6564135376       12.6826581009       28.5243553957
  H         5.4560283752       13.3483174709       25.0182198526
  H         4.4530624266       14.7886694089       25.3810276973
  C         5.2694138839       14.7292205533       23.3665362168
  C         2.5761811468        7.8792210385       20.2652714104
  C         2.9653478215       10.1336062874       19.3161676675
  C        -0.4369414921       10.2792049509       28.7014072706
  C        -0.7306163049       11.6028173852       29.3645933236
  S        -1.0146651503       14.1874489684       29.3603902530
  H         6.0599361855       15.4782587148       23.5836913157
  H         4.5207580754       15.2863237740       22.7791092000
  C         6.0037685065       13.6647813797       22.4679757366
  N         2.2446988046        6.8527891888       21.1991390161
  C         2.7165298487        7.2865331520       19.0153320546
  C         3.3033426447        9.5368430756       18.1027467974
  H         3.3304907801       11.0927376642       19.4468375606
  C         0.8727493568        9.5689174606       29.2453999482
  C        -1.6824904305        9.3894327383       28.5797624507
  C        -1.0031483211       12.0082166938       30.6469296565
  C        -1.2709469518       13.3307179988       30.8253054723
  H         7.1256140862       13.8063896515       22.6874489421
  H         5.9356503128       12.5520684168       22.6578765271
  C         5.8228519572       13.9940192677       20.9218002177
  S         2.2768147357        5.3709967792       20.5008773057
  N         2.4422185973        5.9574505231       18.9973011453
  C         3.0693885568        8.0753141338       17.8601055224
  H         3.4879440130       10.2708315288       17.2811136886
  H         1.2307477035        8.8393366238       28.5240263243
  H         0.6326552439        8.9361300087       30.0361947084
  C         2.0844148640       10.3436286924       29.5982453841
  H        -1.4083399517        8.3945869124       28.2126341372
  H        -2.0650253276        9.2795601489       29.5796317299
  C        -2.7900663066       10.0143871151       27.6953310318
  H        -0.9340591088       11.2559659856       31.3697115216
  C        -1.6454877070       14.0291283989       32.0880281108
  H         5.6704066156       15.0660886406       20.8544482095
  H         4.8554214374       13.5976317870       20.5042119042
  C         7.0117222892       13.5204922140       20.0545784085
  C         3.1215382581        7.4338198426       16.5618467442
  H         2.5273901241       10.8535970604       28.6951766985
  H         1.9173203140       11.0084355301       30.3944533506
  C         3.2849482895        9.4948442393       30.1143988030
  H        -2.4452062929       10.2338947057       26.6798914544
  H        -3.1381741215       10.9122421516       28.1310819621
  C        -4.0663475283        9.2519257443       27.4989817208
  C        -1.7198474804       15.4534527612       32.2700190261
  C        -1.8431533488       13.2653411581       33.3213119753
  H         7.9836843929       13.9246860557       20.3033203321
  H         6.9967143635       12.3578132083       20.1933806736
  C         6.7964211926       13.8158228846       18.5630866684
  H         2.7955662911        6.4459499634       16.5672339851
  C         3.3763600753        7.9685236748       15.3309294004
  H         3.9302771482        9.1249696675       29.2777568578
  H         2.7553782051        8.6951653596       30.6064696415
  C         4.1055920292       10.1366575859       31.2149818550
  H        -3.9421095086        8.3220946704       26.9437479062
  H        -4.4844952135        8.9806569779       28.4137230565
  C        -5.2129874066       10.1957046899       26.9759603386
  N        -1.4311343979       16.4347559282       31.2397546382
  C        -2.0680575868       16.0482318018       33.4511512336
  C        -2.1541166041       13.8519588691       34.5501690343
  H        -1.7581850634       12.1810135369       33.3799038514
  H         6.9975225834       14.8521124455       18.3401688723
  H         7.5103577095       13.1993979181       17.9820625901
  H         5.7096728543       13.5216979788       18.2710253589
  S         3.7495778495        9.5594781852       14.7588738127
  C         3.3183122742        6.9650158636       14.2424706130
  H         4.1869970903       11.2302318331       31.1726214620
  H         3.5412356344        9.9021175265       32.1301443554
  C         5.5005780681        9.5178191573       31.3386039972
  H        -4.9173507165       10.9214016238       26.2161813724
  H        -5.6057726819       10.8403353413       27.7050837171
  C        -6.3576339939        9.4202186871       26.2466642560
  S        -1.6380377356       17.9329551847       31.8598039819
  N        -2.0446901412       17.4423150014       33.3964615666
  C        -2.3347311264       15.3124271071       34.6419007880
  H        -2.2502408129       13.2534315171       35.4312101210
  C         3.9077625116        8.8983261624       13.2026767053
  N         3.6776613798        7.5864564908       13.1392035661
  O         3.0321122944        5.7777434508       14.3476885548
  H         5.9661764603       10.1263062917       32.1403376294
  H         6.0349081483        9.5942285651       30.3971880644
  C         5.4257845760        8.0651468635       31.7212990078
  H        -6.0636082100        8.9443841629       25.3318868477
  H        -6.8112337079        8.6583779227       26.8535874725
  C        -7.4122443849       10.5583274213       25.8359820325
  C        -2.5993138776       16.0500968873       35.7966498395
  S         4.3197844188        9.6159239880       11.6760062975
  C         3.8118432848        6.7071153160       11.9559472953
  H         6.2185349752        7.8858875449       32.4567603432
  H         4.4579425315        7.8270003028       32.1420650348
  C         5.7542789556        7.1238370509       30.5368376714
  H        -6.9304989062       11.1234266617       25.0437205027
  H        -7.6674620683       11.1890377548       26.6813254349
  C        -8.6778885673        9.9424194062       25.2057942001
  H        -2.2486210418       17.1077861378       35.7359452874
  C        -3.0582733396       15.7107913340       37.0767405021
  H         4.5915067827        7.0755216070       11.2889561833
  H         4.1600579051        5.6580746330       12.1000631287
  C         2.4506734084        6.5462332178       11.2472793818
  H         5.9454224614        7.5805568580       29.5599839241
  H         4.8922903634        6.4311384632       30.3280404575
  C         6.9475494683        6.3014906215       30.9691071858
  H        -9.0758624212       10.6483641385       24.4732783325
  H        -8.4787977107        8.9280486738       24.7963306376
  C        -9.7826024458        9.6997599284       26.2819683263
  S        -3.3933248497       14.0723273833       37.4941995360
  C        -3.1991265005       16.6848749404       38.0935499130
  H         1.5782432688        6.8991360781       11.8158613308
  H         2.3636756173        7.1456922879       10.3327570605
  H         2.1977523796        5.5175621477       10.9535953758
  H         6.7454009901        5.7366224711       31.9080116941
  H         7.9195369612        6.8809960830       31.0240649928
  H         7.1479202240        5.4094738704       30.3064276533
  H       -10.0811046967       10.6885244179       26.6092473658
  H        -9.3673533240        9.1900922859       27.1523156145
  H       -10.6540034901        9.1319479473       25.8108200598
  C        -3.7614182281       14.7094879652       39.0851484976
  N        -3.7178484409       16.0894658291       39.1773768221
  O        -2.9980524320       17.8795777164       37.9111664852
  S        -4.3135493114       13.8270184039       40.4360193323
  C        -3.8214852958       16.8407460061       40.4108131791
  H        -3.9064740627       17.8896363676       40.1566229808
  H        -4.5992767131       16.5067175241       41.0910275187
  C        -2.5071636485       16.7606207313       41.1333140805
  H        -1.8519551288       17.5133567321       40.7342053570
  H        -2.6748504246       17.1100291334       42.1836049296
  H        -1.9703427909       15.8710987367       41.0504609880
  H         7.7981761497       10.5652291235        3.7075430173
  C         8.5062991629        9.7824242735        3.9156954694
  H         7.8938463742        8.8556591978        3.9493348089
  C         9.0691663599        9.9092656844        5.3351592269
  C         9.6194217416        9.6432341520        2.9014714489
  C         7.9551359985       10.3498776362        6.2865946498
  H         9.4607149200        9.0300535130        5.6864913878
  H         9.9781487036       10.5514153869        5.4339651739
  H        10.3126770647       10.5206289040        2.9605596309
  H         9.2019892046        9.5387383423        1.8527178316
  H        10.1975240478        8.7370354479        3.1449733856
  C         7.0902702599        9.2621087047        6.8576451367
  H         8.5981545840       10.7985377099        7.0674325225
  H         7.4213110640       11.2566281425        5.8647511556
  C         6.4222527230        9.5515261487        8.2519034680
  H         7.7570678806        8.3394003428        6.9560629439
  H         6.3438909216        9.0264047966        6.1290246373
  C         5.0867493542       10.3143444866        8.1510510337
  H         7.2009763939       10.0092236218        8.8265791303
  H         6.0926089621        8.6065482751        8.7175202973
  C         3.9027976568        9.4787245930        7.8009563492
  H         4.7272348897       10.8384799215        9.0101172266
  H         5.3309511440       11.0752541287        7.4659240325
  C         2.6728619910       10.2760687826        7.4498633773
  H         3.7916458554        8.7929449262        8.6139213959
  H         4.1419328959        8.8796758162        6.8655158693
  C         2.9604167457       11.6109443541        6.7474996484
  C         2.1818668262       11.0442510159        8.6389070560
  C         1.6119990077        9.5540248889        6.6639410559
  C         2.7513571333       12.7660876786        7.4980422752
  C         3.4293398703       12.0605390475        5.4870260044
  C         2.2215373810       12.4232234928        8.7043172503
  C         1.7031707515       10.4801295077        9.8554632827
  H         2.0377784676        9.1901195050        5.7273175240
  H         1.3041829742        8.6187623080        7.1747364561
  C         0.3558703749       10.4108511331        6.3980423791
  S         3.2268692808       14.2973111924        6.8073108607
  C         3.7164095588       13.4018543218        5.3989419295
  H         3.5441581197       11.3563449703        4.6672804167
  C         1.9056455363       13.0707019772        9.8368562114
  H         1.6469780612        9.4356546073        9.9254283457
  C         1.3969053279       11.1892400392       10.9965195561
  H         0.7377359583       11.3945406527        6.0619603277
  H        -0.1755394316       10.5086802798        7.3247359705
  C        -0.6831475795        9.7789158368        5.4165291255
  C         4.2177691050       14.2110658362        4.1647063144
  C         1.4386332635       12.5418260933       11.0167762252
  H         2.0467972386       14.1338140954        9.8369854196
  C         0.9394487086       10.7972418858       12.2230663225
  H        -1.5730302608       10.4276589769        5.4939193218
  H        -0.8711124155        8.7972021656        5.7991624125
  C        -0.1709096528        9.6249856571        3.9772295492
  C         4.2836659329       15.6118147756        4.0118161948
  C         4.5473104711       13.4458608019        2.9573121180
  C         1.0806343718       13.2719263205       12.2732902056
  C         0.8484825409       11.9457875166       13.0525906983
  S         0.6110268904        9.2453347024       13.0085217674
  H         0.0950411418        8.5342547216        3.7721933260
  H         0.6525021713       10.3210726101        3.8272537358
  C        -1.3063775173       10.1528874410        3.1123201817
  N         4.2569254261       16.5560180227        5.0234887571
  C         4.5464725837       16.1546775239        2.7253437532
  C         4.9126366338       14.0022240051        1.7436080099
  H         4.5609768802       12.3906576891        3.0683141415
  C        -0.1961587706       14.1573184652       12.1548659963
  C         2.3439703729       14.0389921562       12.8182928523
  C         0.6130895189       11.5229707630       14.3968177298
  C         0.5051296526       10.1570493786       14.5171662015
  H        -2.1344930212        9.4208479960        3.2139444925
  H        -1.6935378040       11.1175159089        3.5225076764
  C        -0.9906118212       10.2399139924        1.6818673912
  S         4.2431473101       17.9934183024        4.3855214236
  N         4.6075126638       17.5943514361        2.8530980551
  C         4.8107987074       15.4429008902        1.5644863072
  H         5.1254208810       13.4001140946        0.9159021995
  H         0.0545465914       15.0373368541       11.5846657938
  H        -0.3771969072       14.5511790462       13.1354411209
  C        -1.4058139693       13.4053390184       11.6002335495
  H         2.8099569095       14.7780773214       12.1362539992
  H         1.9242207554       14.5800412534       13.6630657311
  C         3.4692648975       13.1567934845       13.3225599602
  H         0.5520076456       12.2676587044       15.1783941449
  C         0.1752996533        9.4544938409       15.8335637060
  H        -0.2486799329        9.4582541253        1.3588344156
  H        -0.4902717785       11.1689211476        1.5869640923
  C        -2.1749178882       10.1817822947        0.7465544767
  C         5.1368714899       16.0492772683        0.3085600750
  H        -1.0516582182       12.8176511963       10.7550671310
  H        -1.7514022791       12.6450413070       12.3134569493
  C        -2.5649414670       14.2812406912       11.1291170926
  H         3.8796777939       12.6794681662       12.4158828658
  H         3.1442524599       12.4295822340       14.0611230719
  C         4.6603261420       13.8087984793       14.0157365141
  C        -0.1255396866        8.0981872969       15.9254945738
  C         0.0319335251       10.2580501363       17.0852056281
  H        -2.6327924461        9.2018279669        0.8917819973
  H        -2.9136882562       10.9041788632        1.0159781693
  C        -1.8016023104       10.0612783699       -0.7234240949
  H         5.2190480749       17.1044144450        0.4386806517
  C         5.4044001853       15.5962494914       -0.9400118285
  H        -2.2905699953       14.8848192974       10.2920376311
  H        -2.8236748269       15.0801425926       11.7890838875
  C        -3.7929692035       13.3667169369       10.7320411831
  H         5.0010228770       14.5978874423       13.4466041942
  H         4.2233610873       14.1493577583       14.9740431351
  C         5.7112594428       12.8230794580       14.3045850298
  N        -0.1049663443        7.1490941072       14.8779556621
  C        -0.4154977673        7.4702068758       17.1411890991
  C        -0.2515016736        9.6936389784       18.2519073709
  H         0.3615675460       11.2658736124       17.1204299322
  H        -2.5484515499       10.4960578826       -1.3681456790
  H        -1.5818158341        9.0201295455       -0.9525509872
  H        -0.8315893076       10.5641277789       -1.0151203781
  S         5.7216912384       13.9570999980       -1.3478525110
  C         5.5234225837       16.4856846235       -2.0643178011
  H        -3.3713190362       12.3452735462       10.4764811716
  H        -4.4600245044       13.2093933460       11.6047381018
  C        -4.5746403459       14.0174204230        9.6175313667
  H         5.9308828170       12.2390154154       13.3929015097
  H         5.3993689366       12.1764525786       15.1076894467
  C         6.9262359817       13.5092524579       14.8621506203
  S        -0.3467745363        5.7070898371       15.4288871800
  N        -0.5860540875        6.0929379014       17.0077719838
  C        -0.5786131920        8.2515050855       18.3120816340
  H        -0.2236504910       10.2956289753       19.1967760120
  C         5.8016021499       14.4660440233       -3.0264748144
  N         5.8475495321       15.7839977017       -3.1778899270
  O         5.2080020825       17.6596295138       -2.0610611124
  H        -5.0590268066       14.8597223246       10.1125229887
  H        -3.9670675965       14.4339869570        8.8524965699
  C        -5.5390809835       13.0135032186        9.0617668636
  H         6.7776484998       13.7945983868       15.8946029570
  H         7.6550789916       12.7047455732       15.0028448013
  C         7.5261951809       14.6770169021       14.0375358888
  C        -0.6511985350        7.5178124320       19.5563218872
  S         6.3481530019       13.3611531141       -4.3147166686
  C         5.8745639234       16.5088280763       -4.5054192823
  H        -5.1193110534       12.4372470204        8.1388880142
  H        -5.8698955204       12.1819758090        9.6671454131
  C        -6.8418689209       13.7864896976        8.7163927235
  H         6.9812399464       14.7202340699       13.0469657215
  H         8.5093718864       14.4670162193       13.6576056141
  C         7.7094581352       15.9982469410       14.7554754080
  H        -0.2079970084        6.4841806736       19.5495690659
  C        -1.3190051966        7.7963472667       20.6876005917
  H         6.3396197451       16.0326232755       -5.3738656743
  H         6.2813700581       17.5272908378       -4.3752011606
  C         4.4215141654       16.5767261235       -4.9382348684
  H        -7.4778497690       13.2503420101        8.0922008552
  H        -6.6174310878       14.6946236722        8.2130570491
  C        -7.5883581114       14.2028024494        9.9266464670
  H         6.7216676564       16.3430214659       15.0674736748
  H         8.2268245509       15.9389368104       15.6948104925
  C         8.5813254786       16.8922540858       13.9336573483
  S        -2.1258254283        9.2973691525       21.0566907517
  C        -1.3613679223        6.8090487335       21.7843444591
  H         4.0314255523       15.6087355875       -5.2651184614
  H         4.3541659755       17.3579981079       -5.6896035616
  H         3.7254335771       16.6191604854       -4.1337395504
  H        -8.6321703296       14.4771360628        9.7598228244
  H        -7.5572806868       13.3814393093       10.6705418464
  H        -7.1512039242       15.0176653010       10.4238863146
  H         8.0673272435       17.1945910914       13.0459333171
  H         8.7615317958       17.9079538033       14.4543114731
  H         9.5573421846       16.4424505659       13.7821633861
  C        -2.4106710873        8.5614705461       22.6790463364
  N        -2.0003947179        7.2907994726       22.8400789474
  O        -0.8336674520        5.7085485326       21.7246739468
  S        -3.3980260909        9.2365748916       23.9139101750
  C        -2.2076912855        6.5839672201       24.1404325564
  H        -2.1489212735        5.5625409188       23.8903537114
  H        -3.2280775436        6.6844908336       24.3826599085
  C        -1.1984167619        7.0274688487       25.1769609170
  H        -1.0644676152        6.1899999193       25.9257241993
  H        -1.5508851033        7.8686868071       25.7748460703
  H        -0.1870026313        7.2130210128       24.6342039785
