352
i =
  H        -3.7406585049       14.6673271992       16.1881408113
  C        -3.3729971839       13.7342724896       16.4535026145
  H        -4.2259677179       13.1002510293       16.7856608692
  C        -2.2249594949       13.7412152982       17.4801608354
  C        -2.8383909278       13.0348259329       15.1826662108
  C        -2.5110242882       14.2020251685       18.9270338432
  H        -1.7674007278       12.7431321161       17.5630514049
  H        -1.5216157652       14.3534821337       17.0301505585
  H        -3.2876883782       13.4796598669       14.2780086622
  H        -1.7056366784       13.0405690300       15.1882744588
  H        -3.1092974487       12.0032237128       15.3280445173
  C        -2.2673402293       13.0908457820       19.8591390755
  H        -3.5187967355       14.5719758360       19.1061508269
  H        -1.8803672358       15.0516568915       19.0867931664
  C        -2.3741774236       13.4926785947       21.3097816318
  H        -3.0285194547       12.3241439909       19.7068287127
  H        -1.3112927105       12.6292843980       19.6169879640
  C        -1.4564065687       12.7217089868       22.1739247439
  H        -3.3976403170       13.5386649813       21.7264829257
  H        -2.0888654660       14.5714718297       21.2934445528
  C        -0.0753720638       13.4780445315       22.3585320346
  H        -1.8868752046       12.5646038454       23.1430878931
  H        -1.2141903151       11.7008344747       21.9028350172
  C         1.0589110482       12.7366804925       23.1776290529
  H         0.2771834875       13.7386287438       21.3557704664
  H        -0.1903276478       14.4528461245       22.8026756160
  C         1.3738613558       11.4695764833       22.3875324785
  C         0.7005093629       12.0086786957       24.4385705520
  C         2.3248559595       13.5625704524       23.1954599493
  C         1.2528885163       10.3202881761       23.1459954182
  C         1.8657333495       11.2265396452       21.0976513550
  C         0.8072932215       10.6612805178       24.3865214686
  C         0.1007479682       12.5333944986       25.6243514690
  H         2.6683499224       13.9481323093       22.2676195464
  H         2.1275703520       14.4202662407       23.7793083620
  C         3.6077234982       13.0308930282       23.9208696199
  S         1.7085861694        8.9552744801       22.3049989010
  C         2.1138445790        9.8700454986       20.9112145588
  H         1.8850705289       11.9970043607       20.3363624474
  C         0.3729476541        9.8717374311       25.4914111394
  H         0.0211444602       13.6165059106       25.5973841967
  C        -0.1699576866       11.7624064317       26.7352112136
  H         3.8453046162       12.0276189556       23.5681884703
  H         3.2806251708       12.8671167523       24.9543085419
  C         4.8652623248       13.8302295742       23.9540229052
  C         2.5203684858        9.2600216911       19.5671194832
  C        -0.0473194042       10.4205579330       26.7293106044
  H         0.4565122463        8.7692109264       25.3685091927
  C        -0.6135419856       12.0187012941       28.0050293900
  H         5.6654546974       13.2346538385       24.4318341604
  H         4.7854921474       14.6770657434       24.6212563149
  C         5.5309635964       14.2852498815       22.6145469333
  C         2.6954365675        7.8969681449       19.3308434666
  C         2.7531711676       10.1865594941       18.3973651983
  C        -0.4014456123        9.5993986933       27.9963711292
  C        -0.7000735197       10.8608846293       28.8290181527
  S        -0.8525383516       13.4678304782       28.8022665690
  H         6.3621615611       14.9905167161       22.7387985932
  H         4.8478291521       14.8341298553       22.0269958389
  C         6.2194910247       13.1578200931       21.8776776213
  N         2.3934167640        6.8756610116       20.2864285972
  C         3.0161705660        7.3800583474       18.1147206323
  C         3.0657494648        9.6464963936       17.1635902322
  H         2.8348208169       11.2869875289       18.4985525244
  C         0.7654831808        8.8589334912       28.5177397015
  C        -1.7268173229        8.8827507797       27.8847719692
  C        -1.0749487921       11.2651464863       30.1190378740
  C        -1.1391820572       12.6297252476       30.2706491671
  H         7.1644631108       13.5390593910       21.4373297487
  H         6.5982141076       12.4081536761       22.4904445200
  C         5.3168940384       12.6567731303       20.7772131138
  S         2.3659450461        5.4496495621       19.5384536137
  N         2.8051767885        5.9716084346       18.0216977172
  C         3.2212808452        8.1888459601       17.0035983067
  H         3.0620952381       10.3887579252       16.3896025397
  H         1.0756729944        8.1329589052       27.7607881421
  H         0.3296066171        8.0577889532       29.1013680916
  C         1.8382324812        9.6642911495       29.1575462347
  H        -1.7070957323        8.0405318580       27.2530245357
  H        -1.9990487537        8.5459514331       28.8715532545
  C        -2.9463319101        9.7886103041       27.6064291891
  H        -0.9932747963       10.5036422821       30.8726301010
  C        -1.4026216690       13.4123652146       31.5639582006
  H         4.2941735377       12.5498501989       21.0532055480
  H         5.4947085883       11.6886059562       20.4945544989
  C         5.3586478885       13.5779996969       19.5644784207
  C         3.3408511481        7.5500875937       15.7217351673
  H         2.2810564850       10.2668745745       28.4208473773
  H         1.4709044097       10.2400318269       30.0607220871
  C         3.0102601614        8.8579952161       29.5799003350
  H        -2.7814433302       10.6277045905       26.9329604441
  H        -3.1433946488       10.2118748033       28.5585009962
  C        -4.1541425184        9.0916986377       27.0852789941
  C        -1.5176725778       14.7982836731       31.6901042655
  C        -1.4278128075       12.6817206402       32.8657740447
  H         4.3848211143       13.5386227233       18.9894050555
  H         5.3646073727       14.5797890348       19.8649182101
  C         6.5586984106       13.2970497585       18.6940682999
  H         3.4874085943        6.4694765193       15.7901949167
  C         3.5951836182        8.0196404647       14.5040322154
  H         3.4030478782        8.2638030599       28.7655500939
  H         2.6220591412        8.0788420191       30.2328273381
  C         4.0449097864        9.7424759990       30.3096365439
  H        -3.9087918479        8.5103948794       26.1926798613
  H        -4.4015028113        8.2622961478       27.8298541645
  C        -5.3134177314       10.0237681460       26.7195532876
  N        -1.3954473524       15.7147334379       30.6076313628
  C        -1.7484181120       15.4912716862       32.8527138794
  C        -1.8029004376       13.3661250102       34.0380881461
  H        -1.2706590297       11.6079856152       32.9238977316
  H         7.0570995424       12.4024143268       19.1293227239
  H         6.2575478641       13.0907436131       17.6653316191
  H         7.2908602591       14.1486315426       18.7681960145
  S         3.8201251413        9.6471891046       14.0294881295
  C         3.5834235753        7.0418455076       13.3327296282
  H         4.0358066949       10.7372035026       30.0502596356
  H         3.7488420789        9.8000242976       31.3574097036
  C         5.4314828203        9.1718042950       30.0721755457
  H        -4.8876396983       10.7717922206       25.9930655294
  H        -5.7043293042       10.5580825965       27.5678999452
  C        -6.4481974224        9.1767750472       26.0273651658
  S        -1.2610156791       17.1840645729       31.2343579086
  N        -1.6171686373       16.8766207760       32.8184654791
  C        -1.9947197442       14.8764685829       34.0790709472
  H        -1.8845581525       12.8655603467       34.9781547511
  C         3.9622590199        9.0057631190       12.3905009004
  N         4.0135279788        7.6678788525       12.2789931496
  O         3.6193375915        5.8185535269       13.4483953147
  H         6.1883562658        9.8218475063       30.5126334499
  H         5.6220198819        9.1029594746       29.0831890159
  C         5.5834511204        7.7535961690       30.7395137577
  H        -6.0563209916        8.5616243513       25.2240699926
  H        -6.8226357478        8.3994102455       26.7179950155
  C        -7.4969165139       10.1257656314       25.4623988958
  C        -2.4947371151       15.6580602820       35.2110889532
  S         4.5443718175        9.9521541281       11.0153430718
  C         4.2674020999        7.0129400399       11.0009420707
  H         6.0507019946        8.0369402419       31.7601613723
  H         4.6347845709        7.2631737790       30.9270374009
  C         6.5064697387        6.7267893609       29.9818545632
  H        -7.0894833900       10.4710953353       24.4911059074
  H        -7.5081814460       11.0699192038       26.0255822612
  C        -8.7789444266        9.4431775511       25.2322695407
  H        -2.3846644064       16.7151230338       35.2083184869
  C        -3.0103854136       15.2824184588       36.4445612680
  H         5.0575642819        7.5051147707       10.3939534075
  H         4.6298059087        6.0020906449       11.0201043617
  C         2.9547487932        7.1419394238       10.1733677699
  H         7.4102439061        7.3120911141       29.7965360922
  H         6.0284829692        6.3144344927       29.0876401196
  C         6.8920430007        5.6364967917       30.9311693530
  H        -9.3129549970       10.0730596745       24.5233980360
  H        -8.7069384265        8.4772052772       24.7871058032
  C        -9.5643407621        9.5130777157       26.5825137858
  S        -3.4199928642       13.6974710714       36.9326309878
  C        -3.1633046446       16.2904671646       37.5088724354
  H         2.3225338852        6.2841736092       10.3600533578
  H         2.2702263228        7.9633050256       10.4494177262
  H         3.1197782057        7.2799643950        9.1030269816
  H         6.7949851044        4.6208859801       30.4888816385
  H         6.3478246702        5.6276928314       31.8680770537
  H         7.9146322701        5.8154895320       31.3009371920
  H       -10.5101809909        8.9775073833       26.4553003212
  H        -9.9042754213       10.5480467600       26.7978923663
  H        -8.9036957219        9.2014008212       27.3520221008
  C        -4.0114297498       14.4474314085       38.3807967925
  N        -3.8153543808       15.7310749020       38.5244232797
  O        -2.7425786051       17.4653055775       37.4313569612
  S        -4.6456661183       13.6297064888       39.7765095831
  C        -3.9405751753       16.5042528557       39.7981064202
  H        -4.0982008067       17.5632057074       39.5829076848
  H        -4.7253072207       16.1917840726       40.4721228745
  C        -2.6654320787       16.4806112383       40.6299677782
  H        -2.0976180702       17.4195595702       40.4644232284
  H        -2.8404365229       16.3661722993       41.6835929713
  H        -2.0819853539       15.5788519748       40.2749822716
  H         7.5629365478       10.9123706485        3.4134147107
  C         8.0493274270        9.9246602624        3.5358925993
  H         7.2602528687        9.1595526063        3.6839255731
  C         8.9546795640       10.0527097272        4.8045096354
  C         8.8251712658        9.5519355121        2.2743862856
  C         8.0687068235       10.4537664304        6.0751973806
  H         9.2946896707        9.0478855241        5.0186775855
  H         9.8179500162       10.7297826480        4.5804872844
  H         9.8187911917        9.8219752880        2.3476681357
  H         8.2659074819        9.9779553971        1.4374213248
  H         8.9135468135        8.4785845119        2.2576783740
  C         7.1521990896        9.3111809679        6.5019560880
  H         8.6789221408       10.6419625999        6.9633508341
  H         7.5084285918       11.3623102054        5.9910513012
  C         6.3353417911        9.6155833607        7.7654900775
  H         7.7133782489        8.4409205899        6.6746497788
  H         6.5051817241        8.9754627254        5.6984788378
  C         5.1853975942       10.5824948647        7.5802141802
  H         7.0759041105       10.0001305468        8.4437794814
  H         5.9491193114        8.6860729144        8.2218246403
  C         3.9885881079        9.8899475367        6.9488053922
  H         4.8555246502       11.0798074082        8.4386602205
  H         5.4124362269       11.3502232075        6.8204806457
  C         2.7259121166       10.8023386540        6.8054121180
  H         3.6641491314        9.0059969098        7.5533907327
  H         4.2900119190        9.4646034474        5.9921775754
  C         2.9704322961       12.2318649463        6.1967488942
  C         2.3431248839       11.3995605378        8.1002815849
  C         1.6155766038        9.9988762228        6.0949890569
  C         2.8395957102       13.2557602330        7.0929575800
  C         3.4928177868       12.6385918926        4.9932307684
  C         2.3516796624       12.7479637677        8.2576065768
  C         1.9443930951       10.7466976086        9.2360152232
  H         2.0112782755        9.1561433539        5.5507728996
  H         0.9415918989        9.5746367388        6.7952249702
  C         0.8534941508       10.7435251755        4.9295739956
  S         3.3124047133       14.8462066023        6.4600824856
  C         3.6874784394       14.0104972534        4.9823550658
  H         3.6262503362       11.8946160131        4.2476476162
  C         1.9504126549       13.2937971030        9.4198050058
  H         1.8161127036        9.7189111529        9.1703488303
  C         1.5625843657       11.3011197005       10.4296826614
  H         1.3834051848       11.1724600155        4.0436901777
  H         0.5804479693       11.6467073533        5.4899189018
  C        -0.3353419785       10.0538143507        4.3254379526
  C         4.1933680721       14.7366879338        3.7771512381
  C         1.5566011650       12.6039905288       10.5610678715
  H         2.0884628435       14.3243745825        9.5068008001
  C         1.0535760963       10.8298610984       11.6468808067
  H        -1.1542820386        9.7477319452        5.0367315908
  H         0.0712961271        9.1133324780        3.8744881101
  C        -0.9615605955       10.9217450556        3.2142492200
  C         4.1901427305       16.1267085473        3.5252216211
  C         4.4608774939       13.8387410612        2.6043053840
  C         1.1926579249       13.2413660561       11.8168764785
  C         0.7960521757       11.8863652290       12.4769471809
  S         0.7853355508        9.3383665299       12.3678666636
  H        -0.2781345950       11.4624223405        2.6490860021
  H        -1.5312639389       11.6752762789        3.7215701861
  C        -1.8968835143       10.1166022419        2.2925752594
  N         3.8403232777       17.1076595452        4.4722989496
  C         4.5690459966       16.6502825722        2.3312747718
  C         4.9260829063       14.3748802976        1.4068264563
  H         4.4603201422       12.7734414047        2.6814096120
  C        -0.0114004594       14.2226743115       11.6311086692
  C         2.2922386764       14.0383302623       12.5237976679
  C         0.3260745698       11.4883137233       13.7982584974
  C         0.2507565138       10.1206667279       13.8266349725
  H        -2.4145611979        9.3177374952        2.8336273142
  H        -2.5246460362       10.8108154320        1.7926420779
  C        -1.1825259562        9.3494784739        1.1735627133
  S         3.8114150331       18.5837694997        3.7409876863
  N         4.4397302037       18.0473760939        2.3328949863
  C         4.9778547387       15.8349575867        1.2385922188
  H         5.2079516416       13.6811962847        0.6067661863
  H         0.2061057215       15.1670611341       11.1282463047
  H        -0.3814753961       14.5205061164       12.6022267935
  C        -1.1067721610       13.5457172918       10.9204716571
  H         2.7180421017       14.7237423160       11.7915717671
  H         1.7946609739       14.7189257273       13.1539377377
  C         3.5309326978       13.2136814338       13.1338507099
  H         0.1248698081       12.2024127331       14.5736878984
  C         0.0479318706        9.3922828147       15.1307971426
  H        -1.7775425344        8.6399492191        0.6199714542
  H        -0.5118722419        8.7047475680        1.6212938566
  C        -0.2322130432       10.1936897729        0.2690950825
  C         5.2237419287       16.4766431399        0.0013501761
  H        -0.8953339713       13.1369370479        9.9435700928
  H        -1.5431084892       12.7653604698       11.5540252143
  C        -2.3264318520       14.4332156119       10.8538381663
  H         4.0425240355       12.6213388410       12.4184046820
  H         3.2548856180       12.6549076980       13.9516291711
  C         4.4680016268       14.1826341029       13.7533339012
  C         0.1978952249        7.9547902863       15.2864069885
  C        -0.4089231337       10.1323719712       16.3622808381
  H        -0.2632015500       11.2129417589        0.5981936267
  H         0.7654659737        9.7459954709        0.3596802784
  C        -0.9339057699       10.2312024944       -1.1117067364
  H         5.2173132735       17.5810395053        0.0551164483
  C         5.5061037714       16.0639158407       -1.2954088397
  H        -2.0026701871       15.2034080566       10.2015241502
  H        -2.5506023459       14.9018307239       11.7956095635
  C        -3.5128653546       13.6010956475       10.4419967327
  H         5.0712393907       14.5662189292       12.9375845306
  H         3.8913288534       15.0289410446       14.1557903072
  C         5.3344395110       13.5394660613       14.8300341674
  N         0.5554617661        7.0360368897       14.2763269178
  C        -0.0555847174        7.3390645291       16.4902022037
  C        -0.5700684273        9.4922392734       17.5962740457
  H        -0.4736212158       11.1873755644       16.3292176225
  H        -0.5263704725       10.9673530224       -1.7197535684
  H        -1.9518936925       10.5305863655       -0.9545172445
  H        -0.7905689967        9.2511959164       -1.6445749106
  S         5.7487313482       14.5438108759       -1.8790638019
  C         5.6164073069       17.1680241651       -2.3537260962
  H        -3.1005443795       12.8470994671        9.7901031102
  H        -3.9054362014       13.0805849532       11.3237798653
  C        -4.6159656960       14.4386496895        9.8153407187
  H         5.2978758459       12.5263415847       14.5338873536
  H         5.0826001472       13.6889674314       15.8740076677
  C         6.8429433433       14.0980752312       14.7164931362
  S         0.6294389043        5.5541435753       14.8712741174
  N         0.0914746615        5.9350520753       16.3675270209
  C        -0.4138078041        8.0167764804       17.7153529782
  H        -0.9905540668       10.1217534695       18.4241841325
  C         6.1764052539       15.2667771728       -3.4109727942
  N         5.9027401035       16.5684599243       -3.5166963772
  O         5.3740465437       18.3849308136       -2.2263041126
  H        -5.0591665012       15.0352901354       10.6278507688
  H        -4.3224951203       15.1036432120        9.0096565963
  C        -5.6257732923       13.4184339361        9.1934253832
  H         7.5754017236       13.4517823534       15.1310259272
  H         7.1592193957       14.1843399081       13.6825745139
  C         7.0188959825       15.4524265199       15.3085279139
  C        -0.7250282682        7.2391342958       18.8850522070
  S         6.4863838121       14.4647483139       -4.9015306622
  C         5.9920361210       17.3658405480       -4.7425169626
  H        -5.2649332175       12.9680125508        8.2865059061
  H        -5.5851288487       12.6407414954        9.9900425734
  C        -6.9698003028       14.0453085231        8.8821900416
  H         7.1820674233       15.3158578568       16.4028309107
  H         6.0911841337       15.9145480482       15.3028617840
  C         8.1580866098       16.2646838504       14.6746112775
  H        -0.4066148918        6.3018069819       18.8872656503
  C        -1.2379600205        7.5950670428       20.1316977816
  H         6.7035480203       16.9489019462       -5.4897430332
  H         6.3769173516       18.3792343863       -4.5359610945
  C         4.5883323838       17.6833886313       -5.3265541416
  H        -7.3498074421       13.7629654075        7.8559350516
  H        -6.8282199743       15.1001829881        8.9178044498
  C        -7.9875847067       13.5380836867        9.8724467744
  H         9.1100330311       15.7651333652       14.7950444986
  H         7.9027838765       16.4557726098       13.6057179026
  C         8.2426284693       17.6506758368       15.3426779905
  S        -1.7363927996        9.1971502144       20.6554902522
  C        -1.3626649195        6.5751316246       21.1749656552
  H         4.6425083316       17.9835159297       -6.3631089829
  H         4.0843825219       18.3974077608       -4.6940196564
  H         3.9478605848       16.8265431828       -5.2535190233
  H        -8.1833901635       12.5157493775        9.7846553390
  H        -7.6524184915       13.6216025178       10.9253825611
  H        -8.8330520027       14.0938570748        9.7273981030
  H         8.9396314119       18.3421412614       14.9961903264
  H         7.2522176046       18.1367229940       15.3823931871
  H         8.4985610945       17.4441187270       16.3803022565
  C        -2.1944120523        8.4171153457       22.1668950073
  N        -2.0096495515        7.0875232407       22.2463595599
  O        -1.0170076802        5.4142325788       20.9726409523
  S        -2.6285231551        9.3212159130       23.6156188697
  C        -2.1042264884        6.3183218369       23.5109686575
  H        -2.3362596273        5.2272626575       23.3887685283
  H        -2.8662781392        6.8107602958       24.1294745966
  C        -0.7832001251        6.3648848777       24.2867581384
  H        -0.8819603077        6.5967466835       25.3732045288
  H        -0.1580948959        7.1511747556       23.9899242775
  H        -0.2539419719        5.4759869213       24.1209759409
