352
i =
  H        -3.4764622505       14.9730319185       16.5535971353
  C        -2.8985966189       14.1233928545       16.4821918204
  H        -3.6351782857       13.3729614674       16.5520435535
  C        -1.9881321272       13.9174295951       17.7128315451
  C        -2.1936964536       13.9176296627       15.1233479312
  C        -2.7251740139       13.5457092457       19.0192818297
  H        -1.1743572852       13.1358778513       17.4654368904
  H        -1.5514776754       14.8745827063       17.8759084110
  H        -1.0903232736       14.1142780160       15.2274929971
  H        -2.2416721793       12.8622785052       14.7839459001
  H        -2.4720261022       14.5336562704       14.3141283288
  C        -1.6579838975       13.2760833534       20.0687994470
  H        -3.4783917390       12.7493562340       19.0599600406
  H        -3.1803906517       14.5214711105       19.2534282695
  C        -2.2152124822       13.5239409618       21.4486460065
  H        -1.2731424028       12.2470208794       19.9586101090
  H        -0.7967578711       13.8815194613       19.9527299680
  C        -1.2333986859       13.1119155520       22.6239057260
  H        -3.0206589709       12.8069102665       21.4351955794
  H        -2.4549089184       14.5720877454       21.6056966793
  C         0.0746167630       13.9068135069       22.7420798630
  H        -1.7244030497       13.3383097950       23.5559211506
  H        -1.1202279440       12.0000444687       22.7749444499
  C         1.2933587571       13.2072951978       23.4263741546
  H         0.5115917867       14.2078466633       21.7607725533
  H        -0.0754167018       14.8551664682       23.2308973882
  C         1.5862167403       11.9136079604       22.7138370496
  C         0.9133741410       12.5098335531       24.7070705308
  C         2.5156126266       14.1988921084       23.6147725718
  C         1.4078775578       10.8152653611       23.5356779513
  C         2.0531006529       11.5670296225       21.4224838140
  C         0.9759991780       11.1579754153       24.8073164053
  C         0.5829751074       13.1496687823       25.8870820302
  H         2.7216492255       14.6236869350       22.6595958433
  H         2.3049223855       15.0821956663       24.2777141312
  C         3.7690117877       13.5451966797       24.2075975672
  S         1.9121378995        9.3965263341       22.8191459455
  C         2.3055551279       10.2248578534       21.3507658792
  H         2.3023052876       12.4108396275       20.7505742150
  C         0.7185179342       10.5779310024       26.0164260231
  H         0.5880143113       14.2212660160       25.7435437069
  C         0.2065476949       12.5995160894       27.0453581740
  H         4.0776143192       12.8032065310       23.4997588366
  H         3.6429088889       12.8836690135       25.0429394646
  C         4.9644734952       14.4303143733       24.5360025426
  C         2.7037308701        9.5362122970       20.0576342934
  C         0.2272870717       11.2464848220       27.1762406008
  H         0.8177038346        9.5057852246       26.1313199837
  C        -0.1930050997       13.0251673926       28.3371344533
  H         5.5894012645       13.8562510119       25.2955460876
  H         4.6887513340       15.3075950999       25.0970104774
  C         5.7606244530       14.9266955748       23.3261033748
  C         2.6833670807        8.1653698488       19.7453856219
  C         3.2475323450       10.4927320844       18.9876858818
  C        -0.3216959845       10.5998455249       28.3862267378
  C        -0.5286784687       11.9032143851       29.0833822442
  S        -0.4261427544       14.5000701514       29.1548511995
  H         6.3623395527       15.8132638350       23.5613569776
  H         4.9804719075       15.2873386821       22.6297637783
  C         6.5747591265       13.7733250618       22.7014444230
  N         2.5110907080        7.1721252535       20.6664115487
  C         3.0424268981        7.6378705283       18.5009389062
  C         3.5929803381        9.9356972346       17.7251383767
  H         3.4103894701       11.5543517089       19.1292853416
  C         0.7428080353        9.8050174279       29.2523920313
  C        -1.5943907388        9.7720466537       28.0854468498
  C        -1.0202370449       12.2776243044       30.3496077919
  C        -1.0657624057       13.6445730169       30.5082514698
  H         7.5370659626       14.0267149963       22.4179336500
  H         6.6313528443       12.9028658182       23.3626105630
  C         5.9325825886       13.2829580481       21.3771041464
  S         2.3607338351        5.7449856008       19.8764246865
  N         2.7961190737        6.2968075591       18.3919883000
  C         3.3622173923        8.4907350993       17.4200179044
  H         4.1079056204       10.6401547595       17.0123988668
  H         1.1030887197        8.9867249505       28.6765691661
  H         0.1353378977        9.3319598383       30.0138064629
  C         1.9051108856       10.5256603385       29.8322171745
  H        -1.5607959253        9.0262990573       27.2129500479
  H        -2.0119338760        9.2589499643       28.9575036692
  C        -2.7949741737       10.7091767703       27.7462267732
  H        -1.3674329556       11.5598705527       31.0888782837
  C        -1.3256611058       14.4744658785       31.7739658401
  H         4.9001074310       13.5788118629       21.3423784943
  H         5.8684464637       12.2146670528       21.3147836471
  C         6.8376141428       13.6515175654       20.1539882586
  C         3.5730442508        7.9128436955       16.1662202003
  H         2.2927532939       11.3854788488       29.3190678910
  H         1.6799382187       10.8030800431       30.8987002996
  C         3.0956749371        9.5820162363       29.9514914973
  H        -2.5370554586       11.3887531483       26.9447183309
  H        -3.0755008557       11.2405556422       28.6198200625
  C        -3.9502085204        9.9192305505       27.3471727516
  C        -1.2853223413       15.8807430393       31.8765075912
  C        -1.5969741943       13.7620313418       33.0046846699
  H         6.9748791254       14.7172135537       20.0673172551
  H         7.7174457779       13.1820372124       20.2394076568
  C         6.3101409274       13.2381924367       18.8167348711
  H         3.5184264928        6.8205131775       16.1138430883
  C         3.8315894987        8.3913521459       14.8992926539
  H         3.2570926783        9.0072627900       29.0934420752
  H         2.7524646297        8.7797708734       30.6342235654
  C         4.4563554455       10.1323692671       30.4345765652
  H        -3.7601792400        8.9739464251       26.7621072158
  H        -4.2022849102        9.5017858921       28.3265946780
  C        -4.9756001078       10.7832661479       26.7314761428
  N        -1.0424516256       16.7935748472       30.8393440555
  C        -1.7605504764       16.5558266795       32.9792029547
  C        -1.9310823910       14.4408244033       34.1889965798
  H        -1.5896813674       12.6702220152       33.0110107357
  H         7.1058151398       12.8694056733       18.1392844197
  H         5.6515360147       12.3946444603       18.9031686768
  H         5.7192898106       13.9626238300       18.2946476390
  S         4.1565437400       10.0093654863       14.4591154297
  C         3.9683127027        7.4159644444       13.8153427557
  H         4.6246746660       11.0925667636       29.9544823593
  H         4.3790286454       10.4431605042       31.4751665633
  C         5.6327818032        9.1908843825       30.0711103101
  H        -4.6390721506       11.4730011762       25.9463569733
  H        -5.4293463184       11.4027606348       27.5232398409
  C        -6.0787924366        9.9687450484       26.1288903720
  S        -1.2745461594       18.2818635832       31.3486725432
  N        -1.8334224137       17.9433687044       32.8320822015
  C        -2.0471628188       15.8930834628       34.1785518051
  H        -2.0873652680       13.8868342579       35.0993969523
  C         4.5095830500        9.3078749878       12.9505037728
  N         4.3764648457        7.9958544067       12.7407838418
  O         3.8363246843        6.1962117471       13.9786480727
  H         6.5162981408        9.7236314677       29.8047953707
  H         5.4607616022        8.7809828229       29.0603752658
  C         5.7744409183        8.0163935771       30.9648149219
  H        -5.7819120957        9.2145924923       25.4222532044
  H        -6.5881226162        9.4679071496       26.8976885505
  C        -7.0630431942       10.9048750248       25.3686797868
  C        -2.3681394983       16.7300151753       35.3426088528
  S         4.7417701143       10.2341114482       11.5635046293
  C         4.4987997726        7.2792379593       11.4701514377
  H         6.2068522727        8.3047663864       31.9332481849
  H         4.7861104470        7.7949894583       31.2784158848
  C         6.4715528361        6.8911304703       30.2542950201
  H        -6.6193994170       11.1602363471       24.4464430236
  H        -7.2174364196       11.8611332106       25.8674981598
  C        -8.3256536775       10.1229312661       25.0067387787
  H        -2.3857029099       17.7712621641       35.3037394729
  C        -2.8891918197       16.3169874716       36.5333839387
  H         5.1173515242        7.8099180815       10.7375941814
  H         4.9044786322        6.2918335282       11.7262825102
  C         3.1340720336        7.0830641598       10.8055228134
  H         7.3083707606        7.3664135250       29.7101917587
  H         5.7617629885        6.4483830590       29.5399072171
  C         7.1368771937        5.8204322801       31.1944176246
  H        -8.6251333014       10.2926385583       24.0169835396
  H        -8.0296893839        9.1452237019       25.0921991776
  C        -9.4500540677       10.3791376110       26.0065177241
  S        -3.5184517321       14.8014352217       37.0287146365
  C        -2.9808888552       17.3891068843       37.5866083148
  H         3.0032821299        7.8732458062       10.0717045163
  H         3.2413150400        6.2553565412       10.1453082946
  H         2.3243559244        6.9106623147       11.5077328843
  H         8.1259291030        6.1511688982       31.5413096818
  H         7.4399135770        4.9271477129       30.7014730945
  H         6.4437702163        5.6312301554       32.0847324987
  H        -9.0903182926       10.4999073478       27.0437107194
  H       -10.0704169844        9.4752986060       25.8127707575
  H       -10.0219974700       11.3055997195       25.7107303879
  C        -3.7913270577       15.5117633722       38.6546075681
  N        -3.6130124623       16.8327876519       38.6758740642
  O        -2.6561552093       18.5632190318       37.4652863833
  S        -4.3918408780       14.5825897593       40.0325267081
  C        -3.9206041518       17.6782330323       39.8767043060
  H        -4.1780782517       18.6378224013       39.4967091213
  H        -4.8178567900       17.3099936205       40.4096725303
  C        -2.7759182570       17.8250629546       40.8916751474
  H        -2.4473020772       16.8837923532       41.3673619667
  H        -1.9219300356       18.4028769192       40.4830903043
  H        -2.9669708921       18.5515439684       41.6891745913
  H         7.5898717752       11.7005370843        4.0214250214
  C         7.9131919765       10.6432156811        4.0232603530
  H         7.0622469822        9.9028684315        4.0261367832
  C         8.8294298091       10.5164887111        5.2855912458
  C         8.5580646348       10.3917925590        2.7349312880
  C         8.1184313794       10.7645199717        6.6260986620
  H         9.2027528759        9.4552673579        5.2326110642
  H         9.6541411176       11.2715144853        5.2321166112
  H         7.9273147538       10.0477660724        1.8923134968
  H         9.3038187888        9.5994268035        2.7895824789
  H         9.0567387516       11.3190763718        2.3954774850
  C         7.2729813535        9.5098279434        6.9589290138
  H         8.8344710666       10.9433805296        7.4623575598
  H         7.5313255689       11.6264909518        6.5015599170
  C         6.4864502629        9.7920077372        8.2482137741
  H         7.8560678784        8.6596855984        7.1180889361
  H         6.5642183183        9.4502207977        6.1707690445
  C         5.2944317455       10.7415228462        7.8454277390
  H         6.9678655578       10.3930348400        8.9513160879
  H         6.1431094508        8.8242062907        8.6443794991
  C         4.1475901213       10.0264878303        7.1251922538
  H         4.9591395166       11.1917894014        8.7434662160
  H         5.6888020161       11.5519134761        7.2452637869
  C         2.8346582080       10.8945706466        7.0096767443
  H         3.9154980292        9.0819730849        7.4872705574
  H         4.4217386676        9.8065477133        6.0905446218
  C         3.2868201331       12.2312542382        6.4418323965
  C         2.4894618255       11.6268918772        8.3566882721
  C         1.5124183017       10.2759490045        6.3031852423
  C         3.1068786425       13.3444415434        7.2812218840
  C         3.8590003540       12.6576315024        5.2410890298
  C         2.6590055653       12.9682769642        8.5064300738
  C         2.0626518353       11.0266171373        9.5041916197
  H         1.7867469325        9.8359365262        5.4021109072
  H         1.2356445929        9.4350914325        6.9280891612
  C         0.4222838972       11.3964641408        6.0854486062
  S         3.4434937373       14.8910043870        6.5288966801
  C         3.9459308554       14.0327497952        5.1511289837
  H         4.0339925431       11.9710903240        4.4404208393
  C         2.3553245478       13.5543971993        9.6936444228
  H         1.8389371080        9.9414983099        9.4391597408
  C         1.8291824762       11.6040905059       10.6883351558
  H         0.9858646910       12.2290769448        5.6253140894
  H         0.0633549208       11.7682087600        7.0270228778
  C        -0.6422381094       10.7128081012        5.1511526974
  C         4.3884115504       14.7185257180        3.8779189027
  C         2.0287706411       12.9240620971       10.9084668078
  H         2.6513895855       14.5926281342        9.7644606902
  C         1.3980504902       11.1505420238       11.9330418951
  H        -1.6060423097       11.2452958925        5.2681431513
  H        -0.7390869821        9.7054762719        5.5199270131
  C        -0.3126475849       10.6306295292        3.6787291186
  C         4.3947360674       16.1200007283        3.7153802734
  C         4.5744447471       13.9263735872        2.6419126038
  C         1.5725431612       13.5690221029       12.1510437423
  C         1.3265826817       12.2077525860       12.7755507580
  S         0.9289476693        9.6921176351       12.6008551560
  H         0.4769599475        9.9067231988        3.5890339786
  H        -0.1349634119       11.5729086289        3.2620896217
  C        -1.4800003554       10.0968206100        2.7921172658
  N         3.9594049548       17.0932722091        4.6421711329
  C         4.6802812148       16.7100728292        2.4862716337
  C         4.8262105750       14.5166144016        1.3997714994
  H         4.6472803579       12.8131783148        2.6341733181
  C         0.2684908099       14.4074293581       11.9567599267
  C         2.6528752677       14.3155486066       12.9397048975
  C         0.7980269815       11.8284713688       14.0111701317
  C         0.6728782373       10.4893649713       14.1200786112
  H        -2.1364132965        9.6403779138        3.4463433737
  H        -1.9841298053       10.9211200784        2.3556041923
  C        -1.0353250608        9.1161470407        1.7319728640
  S         3.9663042104       18.5275305064        3.9631688751
  N         4.5037632927       18.0880212203        2.4772172284
  C         4.9354310933       15.9737375306        1.2852306205
  H         5.0927032697       13.8704391527        0.5504005016
  H         0.3753176411       15.2094140310       11.2064254950
  H         0.0448914600       15.0209006127       12.8448955471
  C        -0.9641193225       13.6168150368       11.5962010350
  H         3.0521315673       15.1973621594       12.5656783264
  H         2.1330832690       14.6476870614       13.8586609176
  C         3.7203953479       13.4872021675       13.5435307016
  H         0.6234332829       12.6424273992       14.7681996463
  C         0.3350572982        9.7663971958       15.3915179807
  H        -1.8305744814        8.6509701973        1.1936742769
  H        -0.3508271004        8.3209948704        2.1017551106
  C        -0.3711915063        9.7829020039        0.4742612999
  C         5.1127100967       16.6440118805        0.0656693837
  H        -0.7387862828       13.1335862629       10.6156682160
  H        -1.1951547379       12.6908183806       12.1184144751
  C        -2.2478235162       14.4527862723       11.1675565506
  H         4.0686003283       12.6997931496       12.8978116884
  H         3.2028601827       12.9000786986       14.2770736106
  C         4.9264646265       14.2808130328       14.1272051549
  C         0.2410872793        8.3574254129       15.5542886677
  C         0.2690778832       10.5198667942       16.7269618225
  H         0.5261498589       10.3070729699        0.6949705961
  H        -0.0820844793        8.9714766374       -0.1444572210
  C        -1.3308783461       10.7531011373       -0.2248771759
  H         5.1689445316       17.7220237823        0.2397424727
  C         5.3773371261       16.3274493139       -1.2397773690
  H        -2.0416711106       15.0708750527       10.3036637465
  H        -2.5692344391       15.1417347604       11.9361713806
  C        -3.3096553487       13.4821836315       10.7285940636
  H         4.5449784303       15.0701503275       14.7787883917
  H         5.6048824273       13.8103349881       14.8585101149
  C         5.7714108768       14.9883192344       13.0078909996
  N         0.4474991453        7.4495091891       14.5024468669
  C        -0.0995935528        7.6797111891       16.6927181404
  C        -0.0318603140        9.8120531667       17.8912251397
  H         0.3536632245       11.5810182840       16.7668238579
  H        -1.4907370102       10.5384479294       -1.3408165114
  H        -0.9066274514       11.7523889057       -0.2747522703
  H        -2.3257781543       10.7848989063        0.1947976419
  S         5.5297032704       14.7075688666       -1.8119491442
  C         5.3730963046       17.3903405758       -2.2551949761
  H        -2.9286502224       12.8907657457        9.8726863632
  H        -3.4636186461       12.6617662860       11.4508948445
  C        -4.6224659753       14.0265434580       10.3273831481
  H         5.1991504686       15.1052347081       12.0985391232
  H         6.6518687738       14.3637317288       12.7463239733
  C         6.3482895635       16.3660653379       13.3781447297
  S         0.4297854187        5.9589239097       15.0554623434
  N        -0.0372152205        6.3069758134       16.5347794758
  C        -0.1753057302        8.3345860346       17.9197085779
  H        -0.1228074944       10.4225859965       18.8325009108
  C         5.5205134102       15.4928238037       -3.3771175584
  N         5.5523175572       16.8247183067       -3.4440229113
  O         5.4891091860       18.5761455693       -2.0113550247
  H        -5.1122432099       14.4447990778       11.1580703957
  H        -4.4052991784       14.8150216504        9.6608200353
  C        -5.4795234979       13.0133216928        9.5338220875
  H         6.7929284085       16.8618203782       12.4014550076
  H         5.6264735339       17.0448386308       13.8007688405
  C         7.4740386638       16.1983614901       14.4485266844
  C        -0.5374624956        7.5468507012       19.0487077493
  S         5.8120728438       14.7869344271       -4.9444238680
  C         5.4951982091       17.5795644056       -4.7590766071
  H        -5.0537576173       12.9233369449        8.5238965432
  H        -5.3459976088       12.0025011884        9.8697999100
  C        -6.9558443490       13.5237123071        9.4448852669
  H         8.3541414420       15.7542838419       13.9590193635
  H         7.1230492500       15.4900598178       15.2419984040
  C         7.8942629288       17.6035578802       14.9636618587
  H        -0.6637084889        6.4833898730       18.8815944987
  C        -0.9445138128        7.8267650998       20.2966025197
  H         6.1509096267       17.1857476545       -5.5559737219
  H         5.9002623882       18.5920232720       -4.7636568345
  C         4.0918629687       17.7044261238       -5.2552246435
  H        -7.5433131209       13.1222052153        8.5805077218
  H        -6.9748404189       14.6105774290        9.4840760843
  C        -7.8652729866       13.0796174773       10.5915908346
  H         8.9494556686       17.6049279944       15.1756340747
  H         7.7215309926       18.3545360397       14.1712953006
  C         6.9996616044       18.1812966295       16.1644607366
  S        -1.2452171021        9.3810517070       20.9844201985
  C        -1.2156099222        6.6547240395       21.2350986227
  H         3.5532053211       18.4466675970       -4.6534394936
  H         3.4765073103       16.7965405071       -5.1534351467
  H         4.0365175840       18.0750303021       -6.2665857728
  H        -8.2477487708       11.9736076710       10.4947387114
  H        -7.3608551450       13.2065124530       11.6040882588
  H        -8.7497754778       13.7865859309       10.4887214951
  H         7.5218790961       18.0665731697       17.1242077731
  H         6.9076161791       19.2050645926       15.9188913663
  H         6.0392818992       17.7374535985       16.3149452094
  C        -1.5906349560        8.5318226093       22.5183606664
  N        -1.6743351567        7.1959995244       22.3861386081
  O        -1.0489674213        5.4947303960       20.9625078283
  S        -2.4276331833        9.2994879440       24.0020048642
  C        -1.9799968400        6.2759487280       23.4749536104
  H        -2.2170203912        5.1996794787       23.2566551622
  H        -2.8764487446        6.6626351893       23.9998393051
  C        -0.6766746061        6.1867501224       24.3221957798
  H         0.2548785030        6.4743034210       23.7385307034
  H        -0.6112473236        5.1701314214       24.6446522564
  H        -0.6898604453        6.8936461187       25.1942994300
