352
i =
  H        -3.9703539988       14.4895348592       16.6078562074
  C        -3.4777370340       13.5918264489       16.5056807736
  H        -4.2075460198       12.8846268167       16.5487527360
  C        -2.5782808492       13.3216614417       17.6583486191
  C        -2.7148092974       13.5761380113       15.1528045517
  C        -3.1572567450       13.4899822029       19.0951655688
  H        -2.2355305906       12.3314500355       17.6475084541
  H        -1.7579513153       13.9839296568       17.6080678021
  H        -3.2277946202       13.5337914216       14.2100379687
  H        -2.0003157492       14.4002204776       14.9912873534
  H        -2.1082859816       12.6918743927       15.0617111780
  C        -2.0362918246       13.5091964657       20.0394272291
  H        -3.7980546638       12.7396792312       19.3301158982
  H        -3.6076454243       14.3725233175       19.1230410762
  C        -2.5249407624       13.5420227178       21.4925165444
  H        -1.4486901404       12.5927381869       19.8915233447
  H        -1.3610457308       14.3417999448       19.7969087466
  C        -1.4962265712       12.8679448626       22.3877828687
  H        -3.3926530487       12.9882703758       21.6090643801
  H        -2.7456074044       14.5262741404       21.7217766218
  C        -0.2553261114       13.7296714112       22.7377078266
  H        -1.8993059563       12.5871241118       23.2985278255
  H        -1.1424757123       11.9509383936       22.0167025093
  C         0.8754825668       12.9599874201       23.3844449144
  H         0.0508808434       14.3031890067       21.9062951966
  H        -0.5632705543       14.4268148026       23.4556721932
  C         1.2637118998       11.6104840312       22.7451600828
  C         0.4867685195       12.1939879830       24.6613004523
  C         2.1557855962       13.7894645814       23.7377999045
  C         1.1092400673       10.5068539397       23.5088968659
  C         1.7087025651       11.2093052536       21.4164838682
  C         0.5972844427       10.8626671034       24.7201204577
  C         0.0763678762       12.8808049537       25.8145004324
  H         2.2563548839       14.5559563409       23.0595546279
  H         2.0390332232       14.1547404721       24.6830511961
  C         3.4438318302       12.9667088427       23.9266581515
  S         1.5627107762        9.0000739833       22.7907936794
  C         1.9408911828        9.8133429086       21.3633481920
  H         1.8649263303       12.1836816828       20.8469104177
  C         0.2861734905       10.1927012231       25.8624006748
  H        -0.0686078003       13.9612013809       25.9409510785
  C        -0.2119581493       12.1951055065       26.9489465219
  H         3.6610187963       12.4341054170       23.0804184798
  H         3.2768263616       12.3100026094       24.7053992243
  C         4.7397760145       13.7755571956       24.2255572522
  C         2.4674411746        9.1395326007       20.1916665512
  C        -0.1419846049       10.8494999658       26.9937250926
  H         0.3138164306        9.1365974155       25.8085621866
  C        -0.6703984516       12.5421062303       28.1257142573
  H         5.2989159831       13.2687038947       24.9165633150
  H         4.4428709033       14.6458081936       24.6917069671
  C         5.5782955803       14.1921734601       22.9861397487
  C         2.5077721245        7.7770584098       19.8801542370
  C         3.0310011145       10.0872033663       19.0776260672
  C        -0.6219571284       10.1108538456       28.2460916849
  C        -0.9755260949       11.4519092526       28.9092220976
  S        -0.9670369679       14.1018084622       28.7726307599
  H         6.2458849741       14.9709987832       23.2157808733
  H         4.9780643820       14.5957366897       22.2163439109
  C         6.3407144890       13.0148879836       22.3091215400
  N         2.1153810607        6.7506594311       20.7898119668
  C         2.8822382168        7.2557884882       18.6326105660
  C         3.3059223063        9.5971436740       17.8363940591
  H         3.2161443324       11.1000525764       19.4134074413
  C         0.5087522729        9.3622642375       28.9864684216
  C        -1.8608128388        9.2323021078       27.9464787856
  C        -1.5046561317       11.9561718445       30.1600354602
  C        -1.4850862854       13.3810290891       30.2073864976
  H         7.0272625532       12.6494244743       22.9789253120
  H         5.6941980571       12.2018304469       22.2073029514
  C         7.0381945945       13.3934496012       21.0036296975
  S         2.3052703284        5.2784794783       20.0144963650
  N         2.8090707503        5.9222644754       18.5769994897
  C         3.1856666180        8.1116048817       17.5375552108
  H         3.6741209559       10.2073305509       17.0292014124
  H         0.8788747431        8.7170428195       28.2416951473
  H         0.0799738547        8.7411438963       29.7371054875
  C         1.6600405230       10.1985920406       29.4401053554
  H        -1.6378985082        8.4404326492       27.2891474793
  H        -2.2375819534        8.8988518032       28.8632876411
  C        -2.9486645881       10.1061571674       27.2759935691
  H        -1.7361860532       11.0260943263       30.7541187610
  C        -1.8003602496       14.1301130296       31.4095728985
  H         7.8779141262       12.7560562947       20.8803494848
  H         7.4079194491       14.3794620053       21.0738255871
  C         6.0630092549       13.3550137606       19.7944207475
  C         3.3241276266        7.5691730589       16.2319074433
  H         2.0046125121       10.7300884432       28.5567173988
  H         1.3471308316       10.9253138818       30.2118143490
  C         2.8389681345        9.3076388303       29.8557789836
  H        -2.4662649270       10.4422138363       26.3838730416
  H        -3.1379462824       10.9668997497       27.9354445042
  C        -4.1649789956        9.3126534572       26.8164141379
  C        -1.7442458773       15.5607779717       31.6342983958
  C        -2.0072600449       13.3286596750       32.7178773206
  H         5.5192789355       12.4605131205       19.9882092525
  H         5.4066236097       14.1898435361       19.9301271610
  C         6.7010728362       13.3820478083       18.4189065547
  H         3.3733471734        6.5627188286       16.2457863992
  C         3.6297976488        8.0776049561       14.9876425284
  H         3.1088955084        8.8423873886       28.9822310121
  H         2.5367662228        8.5961153449       30.4901735257
  C         4.0245566330        9.9394701447       30.4749387070
  H        -3.9020806725        8.6244928724       26.0770286443
  H        -4.5415575126        8.7523892789       27.5992635165
  C        -5.2304396321       10.2143296839       26.2903177312
  N        -1.4611140363       16.4883525722       30.6119819515
  C        -1.9931696632       16.1921504270       32.8211988608
  C        -2.2216844214       13.9793645866       33.9210117292
  H        -2.1009836729       12.2188327244       32.5756379739
  H         5.9440278020       13.1768756244       17.6242526696
  H         7.1116131291       14.4032041020       18.3716892564
  H         7.4834041716       12.6381245891       18.4672619272
  S         3.9138497226        9.7071153997       14.5919368596
  C         3.7780476353        7.0528984301       13.9021554223
  H         4.2819194146       10.8783690578       30.0154524994
  H         3.7782315179       10.0878215871       31.5272139271
  C         5.2269829591        8.8884717721       30.3800592258
  H        -4.9497916619       10.6104127707       25.3255400987
  H        -5.3876291609       11.0100254549       27.0202332589
  C        -6.5889987213        9.5698115724       26.2807354604
  S        -1.4213465802       18.0581683290       31.2255486141
  N        -1.9658846596       17.5740836995       32.7175292037
  C        -2.3333925246       15.5107510501       33.9778620382
  H        -2.3809224298       13.5215471112       34.8864565512
  C         4.2511376533        9.0087803729       12.9635379581
  N         4.1751726742        7.6276030046       12.7945984159
  O         3.4310393052        5.8546534198       14.1165232453
  H         6.0999661077        9.4486244911       30.4735542039
  H         5.2659239847        8.5643536372       29.4276351238
  C         5.1642086380        7.7189348903       31.3274484181
  H        -6.4269198640        8.7637624794       25.5947409191
  H        -6.7858081088        9.0972210286       27.2396443478
  C        -7.6147626346       10.5246907174       25.6871149626
  C        -2.6100284778       16.2052615858       35.1581355307
  S         4.7060744405        9.9364786657       11.4644915836
  C         4.2692791233        6.9043738341       11.5228186693
  H         5.4178502216        8.0543566955       32.3514870675
  H         4.1768325348        7.2699603602       31.3811514447
  C         6.2591760751        6.6539825174       30.9021866295
  H        -7.2450090666       10.9832381920       24.8680388356
  H        -7.9420645095       11.2009686983       26.3453381220
  C        -8.8675631086        9.7206349065       25.0636995200
  H        -2.5766475581       17.1995435461       34.9917633223
  C        -3.1896277619       15.9341456094       36.3857071552
  H         5.1392440525        7.2494491095       11.0654537097
  H         4.5102877247        5.9444124747       11.8326557668
  C         2.9748997165        7.0573967580       10.7279771164
  H         7.2600076975        7.0188293792       31.0336138089
  H         6.0767863488        6.4045883801       29.8596549172
  C         6.0193242141        5.4318633534       31.7066241416
  H        -9.1787059455       10.2124009370       24.2890152041
  H        -8.5518781535        8.8968937809       24.6780865755
  C       -10.0151620902        9.5943328142       26.0229991090
  S        -3.7938359755       14.3935018397       36.9185680264
  C        -3.2298211075       17.0510861191       37.3234076072
  H         2.9722802963        8.0739708394       10.2409778552
  H         3.0293340081        6.2753192337        9.9239014554
  H         2.1242778028        6.8590697592       11.4207950344
  H         6.8358493579        4.7480585749       31.3895789156
  H         5.0257694401        5.0341159535       31.4507770558
  H         6.1450523629        5.6968826614       32.7608453701
  H       -10.8265458225        9.0475698644       25.5536271774
  H       -10.3500029274       10.6254237076       26.1751517042
  H        -9.6063969029        9.1796270550       26.9566393778
  C        -4.0243465938       15.2412787689       38.4153124563
  N        -3.7097424044       16.6331307056       38.4846035318
  O        -2.8528111493       18.1766532463       37.0249013517
  S        -4.6028766781       14.4058641356       39.9789114477
  C        -3.7870960064       17.5360274801       39.6175471446
  H        -4.0835189704       18.4910830327       39.2089622875
  H        -4.5987667760       17.1779066362       40.2398242974
  C        -2.4489234110       17.6256490619       40.2690903324
  H        -1.6249257777       17.9632044133       39.5523248706
  H        -2.4287808549       18.3529719153       41.1838196476
  H        -2.0254665500       16.6628669069       40.6621769635
  H         7.2406867795       11.3463750930        3.3078263454
  C         7.5430710386       10.3790505181        3.3727161279
  H         6.7302185559        9.7957585496        3.5738494322
  C         8.5056431687       10.4319234753        4.5455864828
  C         8.1709123898       10.0477008737        2.0161970393
  C         7.7321175631       10.8117116448        5.8558505035
  H         8.9792834766        9.4819024734        4.6993474421
  H         9.2762808544       11.1649583745        4.5034209111
  H         7.5651046245       10.1603009234        1.0751049001
  H         8.6420580549        9.0849910114        2.0557355811
  H         9.0663788963       10.7200072656        1.9585101081
  C         7.2102431770        9.5404964088        6.5702924561
  H         8.3583931798       11.3378109807        6.4637236941
  H         6.9372855540       11.4067844204        5.6631258974
  C         6.4403156086        9.6918863899        7.9380145956
  H         8.0314717643        8.9484392033        6.8094491301
  H         6.6709503500        8.9275029839        5.9660661047
  C         5.1748810008       10.5283652165        7.9029252874
  H         7.0744193427       10.0952111035        8.6736735098
  H         6.1873526960        8.7276092291        8.2850082383
  C         3.9692778718        9.8403496931        7.3090570249
  H         4.9134179537       10.6953238869        8.8373939268
  H         5.2435448672       11.4619202621        7.5371155159
  C         2.7196803760       10.7799148049        7.0861005843
  H         3.7183397409        9.1498971158        8.0429661521
  H         4.1805359133        9.2848082733        6.4428820752
  C         3.0443084052       12.1520990091        6.4292664095
  C         2.2925343516       11.5069743480        8.3295342075
  C         1.4817888594       10.1190030923        6.3700584226
  C         2.7928542957       13.1914453977        7.2603222532
  C         3.5281134816       12.5620915837        5.1572618050
  C         2.3086157928       12.8628638720        8.4518539194
  C         1.9062806315       10.8122775671        9.5230655850
  H         1.7597137001        9.5457071900        5.5893300610
  H         1.1661475787        9.4561118359        7.0364004375
  C         0.3859555432       11.1118757661        5.9788207513
  S         3.2254829138       14.7353947662        6.5091442378
  C         3.6570268478       13.9726265449        5.0425202295
  H         3.6507712364       11.6260489865        4.5076164143
  C         2.0392739909       13.5283224777        9.6231435926
  H         1.7827792100        9.7186736373        9.6272132493
  C         1.5961961463       11.4752447738       10.6851261765
  H         0.7347936893       11.9689956600        5.5141044595
  H        -0.0848902084       11.4813033034        6.8441933103
  C        -0.6888028503       10.5562826827        4.9568287372
  C         4.0967405965       14.6076052697        3.7484377362
  C         1.6310292638       12.7904910510       10.7691681546
  H         2.1221939662       14.6081430759        9.6996492032
  C         1.2098747445       11.0971851074       11.8683666405
  H        -1.5430324525       11.1846902654        4.9451144529
  H        -0.9831884912        9.6349780709        5.3490350448
  C        -0.0442936093       10.3120280755        3.6058151605
  C         4.0400054385       15.9834008425        3.4605795064
  C         4.4764587607       13.6565800432        2.5977474906
  C         1.1975742960       13.5015613338       12.0232488594
  C         1.0191038910       12.1487831787       12.7307795634
  S         0.9449239907        9.5493104260       12.6663460861
  H         0.4941919829        9.4072781203        3.6786370984
  H         0.6770892403       11.0476572554        3.3979159595
  C        -1.0462943594       10.2160154310        2.4022092017
  N         3.7084767139       16.9802832032        4.4121600099
  C         4.3885742928       16.5574802485        2.2345714753
  C         4.8319995972       14.2384714993        1.4055756491
  H         4.5072711552       12.5947122752        2.7857671305
  C        -0.0822747364       14.3591211241       11.8184182905
  C         2.3950950078       14.3316188393       12.6892413580
  C         0.5351408888       11.7212082271       14.0543268472
  C         0.5643775324       10.3033193051       14.1651415790
  H        -1.5404178202        9.2902666952        2.4624307175
  H        -1.7906879570       10.9549297432        2.4884609161
  C        -0.3975623668       10.3326940973        1.1028334252
  S         3.7206163730       18.5108402570        3.6421342084
  N         4.1869679943       17.8835592206        2.1502621605
  C         4.7931158164       15.7367837704        1.1411830692
  H         5.1935720187       13.7426590979        0.5573222668
  H         0.1659398032       15.0680273779       11.0761656340
  H        -0.3485710079       14.9436215768       12.6602932662
  C        -1.2341339532       13.5504202217       11.2867594012
  H         2.5795821911       15.0225385536       11.9195024350
  H         2.1032407219       14.8719026644       13.5315801598
  C         3.7040980854       13.5917437688       12.8850606658
  H         0.3949286582       12.6308420451       14.7263130154
  C         0.2769834402        9.5873538250       15.3905447919
  H         0.3844181819        9.6348879193        1.0577198810
  H        -0.0820625994       11.3180257767        1.0581918126
  C        -1.3634457068       10.0771358546       -0.1024604702
  C         5.0252099494       16.3291368222       -0.1203638608
  H        -0.9160548703       13.0222285799       10.4216755419
  H        -1.5324354410       12.8104439575       11.9863705470
  C        -2.3656487040       14.4701605544       10.7334883531
  H         4.0178209807       13.2196181376       11.9749731338
  H         3.5575979916       12.7967442045       13.5099001565
  C         4.7966642038       14.4307833306       13.5591663729
  C         0.2375098995        8.1222785206       15.5247076596
  C         0.0424068428       10.3540016903       16.7045737421
  H        -1.4433122440        9.0193865782       -0.1768816241
  H        -2.3102248176       10.4893615217        0.0915726022
  C        -0.8607474709       10.7511730723       -1.3586900252
  H         4.9605315635       17.3244419806       -0.1094800242
  C         5.4633865163       15.8224728577       -1.3195633445
  H        -2.0472556303       15.1866391187       10.0612234067
  H        -2.7128950289       14.9868685932       11.5740889672
  C        -3.4945211051       13.6405351626       10.1587205657
  H         4.8529180132       15.3542056675       13.1015200102
  H         4.4926901293       14.7173566280       14.4896563504
  C         6.1487570876       13.7894214938       13.6863366813
  N         0.4912749882        7.2351135269       14.4641638094
  C        -0.0731062044        7.4041057224       16.6769816699
  C        -0.1877399176        9.6510532895       17.8713439577
  H         0.0651338269       11.4752013447       16.6283283845
  H        -1.6109662337       10.6295275875       -2.1453092368
  H         0.1592684630       10.3724467992       -1.5095738029
  H        -0.7268763856       11.7951608075       -1.1674996097
  S         5.7865533540       14.1963421704       -1.7259963663
  C         5.6263478295       16.8692667272       -2.4462579708
  H        -3.1102777060       13.0396411658        9.3699737201
  H        -3.8639043223       12.9703425318       10.8893681552
  C        -4.6274751293       14.3746826073        9.6242110849
  H         6.2554528232       13.1256373490       12.8721970746
  H         6.1856828928       13.1984618961       14.5807041068
  C         7.3710125487       14.7994170227       13.6277666622
  S         0.3457299216        5.6092066072       15.0330598879
  N        -0.1315665932        6.0547749447       16.5256974184
  C        -0.3461842867        8.1329272820       17.8781233541
  H        -0.2307596812       10.0857700433       18.8527157092
  C         6.0566437131       14.8288473441       -3.4090566123
  N         5.9579187087       16.2061588116       -3.6298820819
  O         5.5213213226       18.0759305971       -2.2853351352
  H        -4.6497305333       15.2858383397       10.1319448741
  H        -4.4188627314       14.5867084333        8.6122267987
  C        -5.9218502948       13.5315985522        9.7278022413
  H         8.2086843457       14.2907281515       13.8883658146
  H         7.5132380228       15.0956686312       12.6760012014
  C         7.2596090251       15.9890593532       14.5734533727
  C        -0.6248759678        7.3960198199       19.0084606492
  S         6.4366497585       13.8305108657       -4.8542970399
  C         6.0644435397       16.8528705412       -4.9548428048
  H        -5.7228734129       12.6174664130        9.2563292955
  H        -6.1496641150       13.3132074751       10.7373068492
  C        -7.1473248623       14.1530946467        9.0666944228
  H         7.6181580097       15.6600906976       15.5007964185
  H         6.2711171953       16.3811761887       14.7120313185
  C         8.1570161625       17.1536119307       14.0939298805
  H        -0.4014548226        6.4023655263       18.9991299505
  C        -1.1712053429        7.7200055356       20.2117636933
  H         6.8628901222       16.3290621125       -5.4353490836
  H         6.4203690399       17.8138454646       -4.7225270423
  C         4.7160499664       16.7885318207       -5.6770014515
  H        -7.3563866822       13.6671329630        8.2101583301
  H        -6.9884626173       15.1162909455        8.8132106161
  C        -8.4434723538       14.1024189899        9.9084784051
  H         9.1260116067       16.8722394990       13.8602046352
  H         7.7615701523       17.6112578890       13.2345506551
  C         8.0906933861       18.2242939897       15.1960466847
  S        -1.8449901087        9.2099489514       20.6727171045
  C        -1.2405642158        6.5843120227       21.2030476760
  H         4.7696275423       17.2527159935       -6.6928027638
  H         4.0177810773       17.4293191781       -5.0284681051
  H         4.2446917217       15.7720851646       -5.6839891026
  H        -9.2668156996       14.6545568354        9.4431467578
  H        -8.7774259999       13.0553032347        9.9416430294
  H        -8.2979795957       14.4560278347       10.9398948117
  H         8.6683440676       19.0769449941       14.7193803043
  H         7.0238458823       18.4985790859       15.4057696497
  H         8.7273052229       17.8378655727       16.0489773922
  C        -2.0354122280        8.4047435582       22.2092718596
  N        -1.8420412651        6.9986538882       22.3417289637
  O        -0.8496583590        5.4230734013       20.9916065287
  S        -2.5985870959        9.2500152479       23.6955778846
  C        -1.9231656333        6.1397400826       23.4773294933
  H        -2.2315084011        5.2234328710       23.1471736449
  H        -2.7281013087        6.5489456111       24.0258622014
  C        -0.5734401401        6.1583528845       24.2029304071
  H         0.1902958216        5.6725400882       23.4928778721
  H        -0.6095584740        5.4044453316       25.0671809876
  H        -0.1746675930        7.1711108142       24.5862576540
