352
i =
  H        -3.6410650985       15.0323837312       16.4286114513
  C        -3.6141380873       13.9756119688       16.6404199213
  H        -4.5895617396       13.6695843098       17.0285092882
  C        -2.4519440167       13.5933309074       17.5450443898
  C        -3.4014227382       13.4236935258       15.2308586121
  C        -2.9048364828       13.8455654666       19.0107237469
  H        -2.1912570650       12.5838515105       17.5484343453
  H        -1.6347621010       14.2458508088       17.3852186009
  H        -3.6015521263       12.4232801870       15.1199001509
  H        -3.9577587049       14.0385256021       14.5250349954
  H        -2.3388809473       13.5329462953       15.0154111791
  C        -2.1382454273       12.9395206448       19.9467337910
  H        -4.0182536611       13.7865906804       19.1111620916
  H        -2.7331780551       14.8870172836       19.2522933105
  C        -2.1104231193       13.4818801482       21.3563578630
  H        -2.4130531528       11.8943451184       19.9275254535
  H        -1.1141936672       13.0460659574       19.6401711811
  C        -1.0887398012       12.8601574475       22.3876886633
  H        -3.0674450413       13.1874504485       21.8027519620
  H        -2.0812015941       14.5810055213       21.3694691093
  C         0.0275276659       13.8710334506       22.7868024146
  H        -1.6692079831       12.7163987390       23.3335959291
  H        -0.7400340580       11.9201951807       21.9912571014
  C         1.2081184079       13.2593638190       23.4952471920
  H         0.3685782813       14.1967868053       21.8518933759
  H        -0.3820726528       14.6996286285       23.2976717281
  C         1.5994643419       12.0582705315       22.7789266377
  C         0.8784499894       12.5412987663       24.7035993938
  C         2.4122329535       14.1729463163       23.6603585731
  C         1.4412758070       10.8766398529       23.5582342284
  C         2.0494636668       11.6571242504       21.4935497213
  C         1.0123791669       11.2050966494       24.7761019357
  C         0.3252742034       13.0906028152       25.8974643424
  H         2.4345726802       14.7866257102       22.7562681816
  H         2.1939971243       14.9323079040       24.4651197415
  C         3.7911563895       13.5946502876       23.9095938229
  S         1.6676610835        9.3450874918       22.7924868153
  C         2.0986510911       10.3059224012       21.3783240493
  H         2.2246831083       12.4046200305       20.7217612611
  C         0.6196306637       10.4678931584       25.8955515400
  H         0.2280228097       14.2417813751       25.8938718611
  C        -0.0641167206       12.3703895261       26.9671770378
  H         4.1102482525       12.9920095649       23.1097468182
  H         3.7516360826       12.9655931707       24.7887657220
  C         4.9078969240       14.6222552910       24.0281997228
  C         2.6587103503        9.6290049158       20.1414244040
  C         0.1375160069       11.0326735097       27.0632976844
  H         0.9330687393        9.4885804011       25.9742077713
  C        -0.5563095731       12.6898355725       28.2338602175
  H         5.6692448840       14.1176435759       24.6229239005
  H         4.7464766000       15.3657106236       24.7285258372
  C         5.4189894763       15.2120152660       22.7219715333
  C         2.5264470175        8.2758789381       19.8827807091
  C         2.9165222613       10.4581013943       18.9005540183
  C        -0.2828998510       10.2978982282       28.2886836383
  C        -0.6347872101       11.5877627486       29.0376381568
  S        -0.8599410279       14.1789624019       28.9706593571
  H         5.9384512903       16.1420451043       22.9909604336
  H         4.5193125283       15.5077150464       22.1854641416
  C         6.2115433038       14.2038134748       21.7952305735
  N         2.1873751346        7.2799085834       20.8317457180
  C         2.7671694785        7.6812495193       18.6562339242
  C         3.1044786380        9.9089949472       17.6171233581
  H         2.9360858277       11.5648039954       18.9279788992
  C         0.7698531049        9.2869948444       28.8445378684
  C        -1.7270258194        9.5710116110       28.0470271208
  C        -0.9493654029       12.0089525340       30.3659481091
  C        -1.1469748107       13.3507413063       30.4421891248
  H         7.0740111357       14.6220273048       21.3947736740
  H         6.6825921678       13.4174615867       22.4451251316
  C         5.4201616141       13.6117999502       20.6511512578
  S         2.1370445747        5.8135444720       20.1011764668
  N         2.6406917968        6.2934379509       18.6817478218
  C         3.0865261711        8.3631705571       17.4807617654
  H         3.3468687964       10.5615225284       16.8027463108
  H         0.9605696495        8.5026306611       28.0915670150
  H         0.2833075796        8.7634445382       29.6922149384
  C         1.9710056803       10.0199132836       29.4489106691
  H        -1.5004168124        8.6628627111       27.4951475993
  H        -2.1331261254        9.2493221567       28.9668824215
  C        -2.7677861111       10.3948316054       27.1963010779
  H        -0.9288367112       11.2599582962       31.1923077771
  C        -1.4331188187       14.1114686693       31.7030221098
  H         4.5801162342       14.2045538295       20.3704635788
  H         4.9796119164       12.6121635105       21.0024464245
  C         6.1160582093       13.4015354807       19.3024482094
  C         3.3562781738        7.6229651735       16.3019919538
  H         2.4471473261       10.6206962197       28.6461739488
  H         1.5104148560       10.6159616879       30.2833165755
  C         3.1703501914        9.1776811387       29.8601336465
  H        -2.2765593438       10.8139702496       26.2961118300
  H        -3.0661328105       11.3116879316       27.7183777530
  C        -3.9220934575        9.6201121961       26.8326013568
  C        -1.5838468793       15.5484731338       31.8864215663
  C        -1.5675644423       13.3107093995       32.9005063336
  H         5.5560848342       12.6621974380       18.6539096311
  H         6.0928596017       14.4024150886       18.7999639305
  C         7.5408846080       12.9242185742       19.4014500498
  H         3.3515646658        6.5600837813       16.3794722411
  C         3.6224252946        8.0065199034       14.9685283666
  H         3.4553088751        8.5971364082       29.0261676468
  H         2.9164372510        8.4480547824       30.5831746298
  C         4.3839870617        9.9618417832       30.2323511124
  H        -3.6078660299        8.9057747382       26.1140767142
  H        -4.3051315864        9.2211631427       27.7448518989
  C        -5.0802787597       10.4841121722       26.3090604777
  N        -1.3456370283       16.4790027356       30.8680275690
  C        -2.0081482372       16.1159249231       33.0863007556
  C        -1.8979721425       13.8745070492       34.1362013308
  H        -1.4368890948       12.2602916900       32.9088647094
  H         7.4943263469       12.0499974714       19.9923399497
  H         7.8328423456       12.5474486330       18.4019599454
  H         8.2724864205       13.5879291924       19.9049730895
  S         3.7863125106        9.5958349253       14.2997532457
  C         3.7616951899        6.9076229096       13.9776228037
  H         4.5286821285       10.6818898831       29.4774254674
  H         4.1851992871       10.5016589527       31.2079399316
  C         5.6988237244        9.1568981761       30.3455912110
  H        -4.7669148582       11.0714253919       25.4558178406
  H        -5.4060441327       11.0291966176       27.1934740860
  C        -6.2595578122        9.6284250128       25.7922799894
  S        -1.7323511828       17.9323258142       31.4876491783
  N        -2.1439821802       17.5351001576       33.0020248345
  C        -2.2617626267       15.3310026088       34.2696376337
  H        -1.9967234272       13.2289989982       35.0081682690
  C         4.0734097096        8.8145868731       12.7879818627
  N         4.1331808562        7.4629497480       12.8059117523
  O         3.5376297751        5.6957633448       14.1439202478
  H         6.5176515923        9.8425220261       30.6396768544
  H         5.9244047527        8.6109276320       29.4559172185
  C         5.7284874271        8.0793155065       31.4662792597
  H        -5.9994687540        9.1561940663       24.8392035256
  H        -6.4668485710        8.8928353273       26.5168427505
  C        -7.5452473751       10.5471159022       25.7114577230
  C        -2.5362725416       16.0204714265       35.4571583657
  S         4.4260391848        9.7148855647       11.3445999679
  C         4.1831811331        6.5142339478       11.6771536294
  H         6.4044714824        8.4315495283       32.2806298407
  H         4.7257629106        7.9889589166       31.9707427384
  C         6.0507234636        6.7370378154       31.0302409250
  H        -7.4325913369       11.4445106554       25.1248200923
  H        -7.7965030997       10.8531875401       26.7415837097
  C        -8.8448436331        9.8747841112       25.1653632426
  H        -2.1056638209       17.0423780919       35.6362627098
  C        -3.1484825648       15.5701450396       36.6383816861
  H         4.8336863235        6.8514458023       10.8288898871
  H         4.5159125085        5.5472627515       12.0179122388
  C         2.8758512917        6.1493756766       11.0338051367
  H         7.0830964177        6.7495692874       30.6566690737
  H         5.5044522867        6.3754144904       30.2093497765
  C         5.8806981181        5.7314131070       32.0884849043
  H        -9.2428148373       10.5512341980       24.4067383753
  H        -8.5489214111        8.8764424914       24.7843806736
  C        -9.8736855688        9.6734929985       26.2643687484
  S        -3.9499571158       14.0688080840       36.7809761740
  C        -3.3437274286       16.4871107526       37.8148840384
  H         2.5575326564        7.1037610380       10.4661775613
  H         3.1042833557        5.3844425179       10.2798712905
  H         2.0544620495        5.8500769387       11.6767622851
  H         6.5625677708        6.0522364873       32.8993406606
  H         6.2727360487        4.7380398549       31.8273238204
  H         4.8544964181        5.5252186038       32.4492932745
  H        -9.5492132467        8.8803062506       26.9521690409
  H       -10.7316957819        9.0871140478       25.8973967665
  H       -10.1228223321       10.5723017632       26.8591765353
  C        -4.4275581051       14.5880977116       38.3949248079
  N        -4.1195207759       15.8815031184       38.7065670335
  O        -2.7897598078       17.5758756086       37.8875135731
  S        -5.0771173080       13.5208266971       39.5842976599
  C        -4.2333658085       16.5427903085       40.0534863851
  H        -4.0308864365       17.6797637375       40.0085544435
  H        -5.2562686240       16.3411552002       40.4749226989
  C        -3.1740970256       15.9794692742       40.9887592530
  H        -2.1702564303       16.0608486977       40.5425402386
  H        -3.3228602897       16.4961209869       41.9294485643
  H        -3.3859276468       14.9068740385       41.0682336710
  H         7.3183502775       10.2615612036        3.4225370790
  C         8.2521650588        9.8353935265        3.4636320416
  H         8.0435850769        8.8099586183        3.5723421960
  C         9.0721965543       10.4361028277        4.5687215800
  C         8.8769386859       10.1717336183        2.0979612882
  C         8.1632294015       10.7738119136        5.7506586608
  H         9.9276271827        9.9110039905        4.9316580571
  H         9.5105175246       11.3640738352        4.2618850043
  H         9.7834912489       10.7817825743        2.1101115733
  H         8.1237566338       10.7581060445        1.5217535921
  H         9.0996605196        9.2497289814        1.4707818490
  C         7.4196916023        9.5632078634        6.3603014876
  H         8.7401610667       11.1986853903        6.5955564137
  H         7.5378309475       11.6218737627        5.3859133897
  C         6.5694282234        9.7873837351        7.5947736567
  H         8.1925328060        8.7748507803        6.5309680340
  H         6.7283813521        9.1952655129        5.6740833055
  C         5.3175515351       10.6265341942        7.3951968987
  H         7.1729451814       10.3422573944        8.2994199969
  H         6.4089042934        8.8144608386        8.1180426136
  C         4.0192882911        9.8122376649        6.9550120782
  H         5.3257796765       10.9971803673        8.4401064814
  H         5.4380895223       11.5547103957        6.8123555221
  C         2.7380196675       10.7618375867        6.8236087632
  H         3.8040519916        9.0811367388        7.6873021505
  H         4.1354873965        9.3210182307        5.9614554852
  C         3.0016542359       12.1366172823        6.1224353875
  C         2.2733604646       11.4530932395        8.0699138546
  C         1.6226397737       10.0410127523        6.0033599046
  C         2.8338293740       13.2088292552        6.9354136624
  C         3.5130121164       12.4707997485        4.8896387155
  C         2.3544060476       12.8169730310        8.1960436389
  C         1.7948195876       10.7443783415        9.1689998426
  H         1.9379665254        9.7718578864        4.9580891959
  H         1.4792105196        9.0514431486        6.4982705434
  C         0.3652570200       10.8803596515        5.8632634665
  S         3.1857089008       14.7146912887        6.1571392303
  C         3.5307322860       13.8176337016        4.7062041076
  H         3.9172052810       11.7089905835        4.2452036195
  C         1.9619290802       13.3944017840        9.3489360386
  H         1.8759925506        9.7102461549        9.0990447750
  C         1.4184879952       11.3624645196       10.3393938190
  H         0.4770135674       11.8314848177        5.4685755599
  H        -0.1160824303       10.9679843468        6.8187499247
  C        -0.6710205585       10.2136451972        4.8671922057
  C         4.0591236253       14.4623072107        3.4195514502
  C         1.4731229288       12.7057814762       10.4953767641
  H         2.1567283623       14.4346200690        9.3477963112
  C         1.0863802210       10.8841313641       11.5704036719
  H        -1.6218616250       10.7567894507        4.9281893084
  H        -0.8631592991        9.2654385179        5.1798597687
  C        -0.1850124370       10.0989570058        3.4848783777
  C         4.2475279455       15.8569858064        3.1792203241
  C         4.6153741220       13.6330272147        2.3125354734
  C         1.1137925898       13.3187329954       11.8498636566
  C         0.9894777277       11.8955864878       12.4702808379
  S         0.8506288565        9.3383129382       12.2512788441
  H         0.3975189808        9.1608982686        3.2973387330
  H         0.4829481376       10.8992488757        3.2088141869
  C        -1.4977015068       10.1394507217        2.6832096745
  N         4.0499838649       16.8069604021        4.1394220450
  C         4.6351700977       16.3632468961        1.9272657886
  C         4.9653277800       14.1367247642        1.1191405579
  H         4.5815289691       12.5457932052        2.4374095435
  C        -0.2481142780       14.0616220692       11.6838502770
  C         2.2605950453       14.1248816434       12.5554629449
  C         0.6767201825       11.3878609114       13.7536894907
  C         0.4892273925       10.0181921230       13.7338840370
  H        -2.2145211217        9.4915960000        3.1817692191
  H        -1.7803931229       11.1948946444        2.5709860732
  C        -1.2080888422        9.7833278750        1.2510059787
  S         4.1154226452       18.2589235526        3.4101262852
  N         4.6144252266       17.7436560801        1.9616091910
  C         4.9856456320       15.5828618964        0.8503569346
  H         5.3200786586       13.4264832516        0.3492067468
  H        -0.1146802976       14.8150898150       10.9582550723
  H        -0.3352406697       14.7015033701       12.5713688309
  C        -1.4284696799       13.1549087244       11.4573577318
  H         2.6561355406       14.9053411795       11.9185678286
  H         1.9350897880       14.6727400321       13.4394223994
  C         3.5214078082       13.3472316471       12.9199010913
  H         0.5761334563       12.0788316364       14.5640593823
  C         0.2124956558        9.2256447441       14.9702938518
  H        -1.2928631445        8.7426834335        1.0655482802
  H        -0.2119404635       10.0819534586        1.0299875466
  C        -2.0592114273       10.4207368444        0.1757304120
  C         5.2357332122       16.1925589386       -0.3981241681
  H        -1.1692818805       12.4991277209       10.6164408036
  H        -1.6180128993       12.5755681449       12.3546093784
  C        -2.7763051613       13.8447153771       11.1093374721
  H         3.8560005843       12.9082997742       11.9814485543
  H         3.3416442797       12.4418347169       13.4738366198
  C         4.7365091028       14.0187172483       13.5964685269
  C         0.1559796976        7.8276537086       15.1003731725
  C         0.0441413537        9.9958262081       16.2473638050
  H        -3.0674556612        9.9798432751        0.1587353810
  H        -2.3422049194       11.3847961175        0.4123999111
  C        -1.3374996141       10.4965095386       -1.1990493284
  H         5.2003036864       17.2622006744       -0.3996911602
  C         5.5488944038       15.7526470378       -1.6472652527
  H        -2.8271334972       13.8262321695       10.0139040101
  H        -2.6886586659       14.8403213206       11.4548819355
  C        -4.1020028009       13.2042731243       11.5766156297
  H         4.9314736172       14.8750453197       12.9665516645
  H         4.4903576853       14.4642054336       14.5120357199
  C         5.8735380094       13.0735498553       13.7701441379
  N         0.4675894831        6.9702471014       14.0842850749
  C        -0.0565059151        7.2405264231       16.3633677426
  C        -0.2134856373        9.3793517128       17.4699710324
  H         0.0696514396       11.0315393979       16.1834029663
  H        -1.4787668485        9.4814313575       -1.5292241802
  H        -0.2749189586       10.8044568416       -1.2187151350
  H        -1.9582669325       11.1639107038       -1.8742224883
  S         5.7857289180       14.1065592933       -2.1549435892
  C         5.5505384956       16.7367628718       -2.7623848417
  H        -4.1933537444       12.0807029620       11.3631358850
  H        -4.2521769063       13.4639495720       12.6562124448
  C        -5.3254022134       13.8355683313       10.8387677949
  H         5.8621007722       12.3810685692       13.0254888672
  H         5.5621128301       12.4664323328       14.6901038861
  C         7.2366203839       13.7186854699       13.9589059492
  S         0.6930389676        5.4665781243       14.7557725435
  N         0.1620002492        5.8754760239       16.2794313614
  C        -0.2930075605        7.9036329251       17.5754772872
  H        -0.3627591734        9.9796426809       18.2951182072
  C         6.0330986155       14.7796961903       -3.7446327431
  N         5.9069200199       16.1072692538       -3.8767347164
  O         5.5669208046       17.9549612246       -2.6350359888
  H        -6.1813331603       13.5720967675       11.4216206458
  H        -5.3206600538       14.9620508585       10.9795943979
  C        -5.4906285552       13.2931699547        9.3849228646
  H         7.8705405855       12.8074619315       14.2767115577
  H         7.5666170636       14.3251983761       13.1022676043
  C         7.2450894852       14.6783378719       15.0947257842
  C        -0.6569347202        7.2037854795       18.7366387028
  S         6.6714498269       13.8963861548       -5.1066596202
  C         5.8035682623       16.9276266509       -5.0796565094
  H        -4.8667982659       13.8540801213        8.6471919315
  H        -5.2110141845       12.1936117228        9.4152677602
  C        -6.9459055544       13.4703173751        8.7934146462
  H         8.2567118319       14.7284912318       15.5874847100
  H         6.6424354424       14.4140861130       15.9344000385
  C         7.0741919711       16.1200655188       14.6296183153
  H        -0.7740365918        6.1312291528       18.6555087921
  C        -1.0697570448        7.6500289725       19.9815538590
  H         6.6017397518       16.6451036641       -5.7739403507
  H         5.8932702671       17.9660463162       -4.8324341539
  C         4.4541729306       16.7480125532       -5.7550833960
  H        -7.3000260977       12.7248008255        8.1032928351
  H        -7.1348992676       14.4577353585        8.3015478763
  C        -8.1204243311       13.3596743871        9.8028478562
  H         6.2523781702       16.1778552208       13.9208355309
  H         6.7754268016       16.7983561989       15.4678643580
  C         8.4207647045       16.6609330409       14.0507035542
  S        -1.3383177252        9.3001295570       20.5659346051
  C        -1.3109958835        6.6215123057       20.9689739205
  H         3.6576165246       17.0466707771       -5.1426863199
  H         4.3423503437       15.7277597204       -6.0900251330
  H         4.4256553534       17.3543387324       -6.6518557250
  H        -7.8675971015       12.7011694647       10.6808110638
  H        -8.5829620714       14.2586824812       10.1151058016
  H        -8.9162472033       12.8287706011        9.2363157657
  H         8.3329141092       17.7667717379       13.6917838640
  H         9.1126956679       16.5363747015       14.8861620063
  H         8.8552816449       16.0325733561       13.2898954040
  C        -1.8000136542        8.5618850023       22.0370511807
  N        -1.8476147113        7.1740704081       22.0822171236
  O        -1.0575016776        5.4534126426       20.8284253950
  S        -2.3033043595        9.5730059575       23.4562218420
  C        -2.0250191903        6.4058139101       23.3586528141
  H        -2.3952145976        5.4320561460       23.1703237927
  H        -2.8565128929        6.9917617814       23.9655277129
  C        -0.6948132827        6.2492778288       24.1593611245
  H         0.2331678690        6.1669525972       23.5631329485
  H        -0.7220140910        5.3981624548       24.8435939335
  H        -0.6056030760        7.1092873060       24.7910195070
