352
i =
  H        -3.2994712080       14.6511599958       16.1326350467
  C        -3.1594723956       13.5538845616       16.2175529695
  H        -4.0124846368       13.1045608219       16.6727362992
  C        -2.1166106636       13.1544149937       17.3197797570
  C        -2.7246253881       12.9983756557       14.8403854368
  C        -2.7259471040       13.2550767647       18.7606732420
  H        -1.7600975476       12.0902061338       17.1859295835
  H        -1.3130257555       13.8695793717       17.3031761518
  H        -2.5469924101       11.9292407950       14.8203362474
  H        -3.5795999438       13.1889218632       14.0620843347
  H        -1.8980639997       13.5762945689       14.4591411228
  C        -1.6975515220       12.9941770368       19.8619180105
  H        -3.5220182045       12.4542023392       18.8112785513
  H        -3.2338328256       14.2351466238       18.9051614885
  C        -2.1233239744       13.2621515058       21.3159775029
  H        -1.2398902930       11.9981087435       19.7295891628
  H        -1.0232606033       13.8112714161       19.6573473989
  C        -1.1442675905       12.7767205210       22.3894164733
  H        -3.0277674971       12.6523767570       21.4704566630
  H        -2.4465334174       14.2876443557       21.3425813199
  C         0.0542674556       13.6884548235       22.5230556559
  H        -1.6178709320       12.7006417773       23.3395130458
  H        -0.7892820454       11.7992991776       22.0506829132
  C         1.2438021417       12.9333967095       23.2187368178
  H         0.3445453302       14.0199167424       21.5419566222
  H        -0.2345990473       14.5330877401       23.1543870377
  C         1.6661592211       11.5955755795       22.5823210018
  C         0.8018797711       12.2820296715       24.4760436352
  C         2.4418332150       13.8614177798       23.5158901421
  C         1.4360387568       10.5544013361       23.3489063813
  C         2.1654997342       11.1795174510       21.3287730528
  C         0.8813707666       10.9328084465       24.5449368158
  C         0.2472187251       12.9114549532       25.5787614170
  H         2.5154907535       14.5493117399       22.6060571368
  H         2.1004757778       14.4604717343       24.3135663105
  C         3.7623829689       13.1404128981       23.9866596857
  S         2.0187835791        9.0756158049       22.7340743795
  C         2.3423193667        9.8630490643       21.2351887299
  H         2.3883972189       11.8993454194       20.6112474053
  C         0.4818925357       10.2381185878       25.6586658792
  H         0.2173061815       13.9584478107       25.6680083520
  C        -0.1263590640       12.2068238760       26.7105813536
  H         3.9970291849       12.3686643311       23.2395337463
  H         3.5425988949       12.5288853836       24.8761617488
  C         4.9372385349       14.0964704728       24.2040642696
  C         2.6242483273        9.1351513385       19.9413862960
  C        -0.1069617538       10.8421654130       26.7549019624
  H         0.6483989003        9.1164315009       25.5975348882
  C        -0.3937530863       12.5986354294       27.9522688869
  H         5.6759546490       13.5051009182       24.7133355090
  H         4.7298263243       14.8754154131       24.9637923688
  C         5.5065605184       14.6927407793       22.9361614594
  C         2.5658519680        7.7076454231       19.7944451020
  C         3.1519452301        9.8659176603       18.6864411980
  C        -0.4305858284       10.1908684114       28.0769493265
  C        -0.5911559464       11.5168645689       28.7843805516
  S        -0.6744521179       14.0583076334       28.7349945500
  H         6.2673104572       15.3275900611       23.2990107199
  H         4.6989006858       15.2104170988       22.4413257690
  C         6.1680274504       13.5719666123       22.1687850600
  N         2.2690290685        6.8357604638       20.8895592709
  C         2.7322080310        7.0698530503       18.5599260728
  C         3.3492778912        9.2071322907       17.5018337282
  H         3.3275069773       10.9568833599       18.7724163878
  C         0.7294914852        9.3330645824       28.6281981810
  C        -1.7345506495        9.4109552593       28.0550481674
  C        -0.9358101715       11.9159758443       30.1044600883
  C        -0.9631948103       13.2815237935       30.2367864833
  H         7.2049937837       13.8654226707       21.9393058692
  H         6.0401553278       12.5481442306       22.6295618470
  C         5.5911682633       13.3731677661       20.7620811922
  S         2.3585250580        5.3354735034       20.3298849159
  N         2.6951768005        5.7363206094       18.7313065682
  C         3.0773639502        7.7522966819       17.3516937314
  H         3.8357651011        9.8306062305       16.7542983894
  H         0.8648766364        8.4118524523       28.0940198276
  H         0.4031207375        9.1373999693       29.6427526836
  C         2.0257997778       10.1252538185       28.7235600056
  H        -1.6359540923        8.7119682695       27.2186659901
  H        -1.9079775205        8.8882290724       28.8629331235
  C        -2.9067923182       10.3165294011       27.8899606746
  H        -1.1761618821       11.1406096579       30.8060567794
  C        -1.2710785270       14.0598179854       31.4568308265
  H         4.7512199722       14.0376245655       20.5727472464
  H         5.0524929092       12.4394260855       20.7786994557
  C         6.5219595850       13.4897284074       19.5718120901
  C         3.2775178938        6.9719201956       16.1134832162
  H         2.2221514775       10.4853009599       27.7587000702
  H         1.8077709796       10.9897644682       29.2860544620
  C         3.1957678702        9.4040878338       29.4202986577
  H        -2.7763978955       11.0919299990       27.1785436801
  H        -3.1931696269       10.6915587362       28.9027241952
  C        -4.1837326631        9.5024728262       27.5060096377
  C        -1.4247628781       15.4237580217       31.5045995506
  C        -1.6064175096       13.2637855532       32.7171508653
  H         6.0117905772       13.0827689230       18.6762344793
  H         6.7089142784       14.5661146223       19.4599432765
  C         7.7396994205       12.5247424637       19.7784686609
  H         3.0349439933        5.9234910659       16.2079108493
  C         3.7004709223        7.3076294074       14.8601904261
  H         3.7561586559        8.9287224619       28.5433361757
  H         2.6680751136        8.7397458141       30.1548580355
  C         4.2617483302       10.2861409986       30.0491670567
  H        -3.8419842839        8.6230011028       26.9789969186
  H        -4.7633116043        9.1766391686       28.3723212628
  C        -5.0738121091       10.4588351930       26.7004274402
  N        -1.1973525342       16.3318523746       30.4290351771
  C        -1.8097990689       16.0437637674       32.7291867333
  C        -1.9332374282       13.9324526540       33.9131573846
  H        -1.5463938876       12.1630141609       32.6705306797
  H         8.1481333731       12.1875930662       18.7896873042
  H         8.5735350062       13.0889956414       20.1765249434
  H         7.4623478380       11.6199909248       20.2873064554
  S         4.1445526011        8.8746588635       14.3164566053
  C         3.6573784375        6.3043430585       13.7354467670
  H         4.5254643367       11.0821807119       29.3256091403
  H         3.7587200838       10.7516868857       30.9310546979
  C         5.5722109578        9.4947271266       30.3181462069
  H        -4.5356333838       11.0439417764       25.9883489506
  H        -5.3703746613       11.2424491395       27.3567453989
  C        -6.1867098056        9.7414839416       25.9593531176
  S        -1.4453521410       17.8018894413       31.0037173166
  N        -1.8450160348       17.4354725580       32.5637689543
  C        -2.0906710865       15.4041411326       33.9103430065
  H        -2.0106569371       13.3253287263       34.7864915035
  C         4.3602724791        8.2399183140       12.7403204022
  N         4.0068449282        6.9446355657       12.5928438427
  O         3.5444404116        5.0769308194       13.8990274900
  H         6.4654294867       10.0201249556       30.7018370733
  H         5.9044238140        9.1117148497       29.3872743817
  C         5.3883876941        8.3752811541       31.4128306071
  H        -5.7130017364        9.1279993208       25.2073980549
  H        -6.6595182439        9.1363887684       26.7309029338
  C        -7.1399519595       10.6231262309       25.1795738913
  C        -2.4247963972       16.2553077182       34.9896579266
  S         4.6547916722        9.3312060364       11.3728650973
  C         4.0074450346        6.1400819078       11.3652471967
  H         6.2173318455        8.3873589092       32.0886657669
  H         4.5380234609        8.4246266614       31.9734246365
  C         5.4259504509        6.9860515886       30.7308446544
  H        -6.6085200240       10.8279960153       24.2395019507
  H        -7.3948207826       11.5719479213       25.6132087425
  C        -8.3906125413        9.8376320365       24.9748402439
  H        -2.0335431988       17.2892688438       34.8609157995
  C        -2.8500613098       15.9869445492       36.2483747984
  H         4.6753139953        6.5174727622       10.6269802944
  H         4.2638506382        5.1249390291       11.6647239401
  C         2.5095061342        6.1646200221       10.8557761156
  H         5.1687529813        7.1924119090       29.6564188290
  H         4.6074531478        6.4080732866       31.1710591381
  C         6.6254024808        6.1472708356       30.7984351550
  H        -8.9327547710       10.4115940396       24.2549427500
  H        -8.1635400289        8.8635875346       24.5317634106
  C        -9.2665135303        9.6856240191       26.1870440131
  S        -3.1574954328       14.4316495369       36.8751906594
  C        -2.9090441907       17.0468701844       37.3125580645
  H         2.2654812540        5.3049344875       10.2549086514
  H         1.7764658261        6.3597039897       11.6663207840
  H         2.2925659680        6.8971042364       10.0982773439
  H         7.4747327141        6.7019897696       30.5433682162
  H         6.5081268487        5.3820735586       29.9651658745
  H         6.6344215340        5.7003388875       31.8222511629
  H        -8.7615715315        9.2009041200       27.0083226286
  H       -10.1917577855        9.1084296374       25.9922022048
  H        -9.6452905850       10.7168662141       26.4282153741
  C        -3.3768753404       15.1824120410       38.4500602872
  N        -3.4145903340       16.5319835664       38.4365721682
  O        -2.5915733806       18.2488763515       37.1089979379
  S        -4.1012981543       14.4266816930       39.9111347918
  C        -3.4516828646       17.3394357415       39.6267669530
  H        -3.7789962977       18.3092195445       39.3978809961
  H        -4.0788746971       17.0286023783       40.4377229866
  C        -2.0578079752       17.4384926049       40.2354989446
  H        -1.2606741207       17.5770087292       39.5150386751
  H        -2.2036413094       18.1511152277       40.9977490499
  H        -1.7868125878       16.5873094606       40.8198254734
  H         6.6003219993       10.6302432605        3.0220639227
  C         7.4304964056        9.9356226632        3.2852026689
  H         6.9289166303        9.0249033186        3.6131148170
  C         8.3660659643       10.4344136222        4.4223573309
  C         8.3054184091        9.6593268296        2.0703113216
  C         7.6703424863       10.6670089682        5.7866799048
  H         9.1779745294        9.8012753488        4.6559830012
  H         8.9081000217       11.2999980280        4.1322066135
  H         8.5907672269       10.5322328036        1.3980812384
  H         7.6972515220        9.1808370401        1.3051941451
  H         9.1265457198        9.0260197761        2.2157749704
  C         7.4284724352        9.3375821115        6.4908330307
  H         8.3327940242       11.2593080557        6.4441991462
  H         6.7093672850       11.2281598207        5.6337204679
  C         6.7736334018        9.5409449514        7.8439310968
  H         8.4019590270        8.8224317846        6.5716413258
  H         6.9049566931        8.7104096584        5.8328794579
  C         5.4029233802       10.2865371685        7.8578731708
  H         7.5212020595       10.0503298094        8.4320212775
  H         6.5461896762        8.5769165789        8.3110556632
  C         4.2590399128        9.5105865330        7.2372664638
  H         5.0898958944       10.4746888543        8.8730390170
  H         5.5176278910       11.3028461730        7.5170180248
  C         2.9923097905       10.3962296271        7.0962651621
  H         3.8196983543        8.6965664640        7.8634739181
  H         4.5422119358        9.0988543244        6.2139927266
  C         3.3551140612       11.7472245561        6.4309773238
  C         2.5491404461       11.0461249423        8.3321073174
  C         1.8485370829        9.6947612266        6.2215180355
  C         2.9911272723       12.8341588922        7.2032986718
  C         3.8932637650       12.1942535073        5.2383309998
  C         2.5182128488       12.3827447660        8.3992801507
  C         2.0998972982       10.3340764420        9.4899871189
  H         2.1949877971        9.3140969476        5.2296834563
  H         1.5573987207        8.7737003560        6.7905552861
  C         0.6021385660       10.5533453227        5.8764019151
  S         3.3150779417       14.4194420502        6.5128012380
  C         3.8798377602       13.5542904276        5.1518919537
  H         4.0809728712       11.5046889971        4.4231334841
  C         2.0661309207       12.9738646344        9.5437543188
  H         2.0969090023        9.2359871882        9.3639592230
  C         1.7362788366       11.0108995831       10.6622989435
  H         0.9712660709       11.5331606523        5.4949988662
  H         0.2404376476       10.6881344515        6.8848733192
  C        -0.3865097194        9.8713977289        5.0039287455
  C         4.2494812165       14.3503723869        3.9362788371
  C         1.6856186872       12.3336271283       10.7306894693
  H         2.1122649742       14.0842891539        9.5913272277
  C         1.3600382421       10.6335971309       11.9293893341
  H        -1.3395797214       10.3990716961        5.1027302219
  H        -0.5692099120        8.8483397979        5.3541257654
  C        -0.0091501783        9.5146716208        3.6015515468
  C         4.2170862407       15.7698527329        3.6869286384
  C         4.5843555209       13.4946867687        2.7608628525
  C         1.2412858662       13.0635204442       11.9970382443
  C         0.9792102393       11.7387850731       12.6322391595
  S         1.0448782078        9.1204566646       12.6282420544
  H         0.2325997067        8.4714030831        3.5020832314
  H         0.9287847281       10.0074836173        3.3797159982
  C        -1.1738462599        9.7600054030        2.6576990158
  N         3.9145857333       16.7058960601        4.6712554974
  C         4.4367642742       16.2763551680        2.4224990511
  C         4.8375968313       14.0628675053        1.5054945679
  H         4.7269017826       12.4688580448        2.9216117601
  C        -0.0411134344       13.8921662370       11.7455930651
  C         2.3549988734       13.9583648558       12.6439739823
  C         0.6288450731       11.3317531106       13.8962379308
  C         0.6472073349        9.9791769345       14.0584687178
  H        -1.7586942595        8.8345028096        2.8214194327
  H        -1.7694821404       10.5865142667        2.9926772310
  C        -0.6603344719       10.1185851416        1.2646333112
  S         3.9271246715       18.2069311620        3.9311686598
  N         4.1285244103       17.6469049183        2.4211587900
  C         4.7332899378       15.5397175456        1.2399029083
  H         5.2382618800       13.4082459458        0.7459986670
  H         0.1611316281       14.7589063284       11.1505044802
  H        -0.2906779526       14.3888256734       12.6751115056
  C        -1.3207063163       13.0887420003       11.2847671272
  H         2.4833908448       14.8008099030       11.9091224985
  H         1.9605606827       14.4958790563       13.5344314909
  C         3.6865338389       13.2301714972       13.1169344121
  H         0.3847703742       12.0279736933       14.6564722969
  C         0.3299669189        9.1883053095       15.3111673999
  H         0.1608757916        9.3482939576        0.9785262909
  H        -0.2166574715       11.0941101112        1.2502241286
  C        -1.6631520768       10.1106193429        0.1575154850
  C         5.0454321423       16.1730280964        0.0047265420
  H        -0.9531816494       12.2701014925       10.7495258234
  H        -1.7943918523       12.7283433823       12.1595796322
  C        -2.1961162025       14.0634343393       10.4408499137
  H         4.1386588844       12.7527504571       12.2596481596
  H         3.4972977405       12.3457984305       13.7762895749
  C         4.6962179939       14.2205038494       13.8148762732
  C         0.2012625086        7.7578303876       15.4351858357
  C         0.0143154443        9.9224173277       16.5188267309
  H        -2.2323199740        9.2375641393        0.2576451223
  H        -2.2947492044       10.9495520814        0.3143256843
  C        -1.0655805777       10.1174659920       -1.2195466191
  H         4.9047356791       17.2765724470        0.0893008882
  C         5.3844544369       15.6675587290       -1.2687052623
  H        -1.4912332035       14.5603664543        9.7781201058
  H        -2.7115356254       14.8699838637       11.0069821497
  C        -3.2655953538       13.3377090488        9.5817834609
  H         4.9240386769       15.0652434335       13.1241120719
  H         4.1377148351       14.7299942950       14.5769947787
  C         6.0127725292       13.6510189889       14.4266844404
  N         0.5030414389        6.7898971184       14.4585087742
  C        -0.0953051305        7.1495157856       16.6417154136
  C        -0.3491883978        9.2993952317       17.7196859059
  H         0.0196488030       10.9392368382       16.4675363145
  H        -0.0654550265       10.5920683121       -1.3849703944
  H        -1.7195714879       10.7941962701       -1.8091292034
  H        -0.9895197950        9.1740635409       -1.7620960410
  S         5.6602170844       13.9943457625       -1.7098578014
  C         5.5109272157       16.6412082173       -2.4053848578
  H        -3.2884493004       13.7499185122        8.5436326542
  H        -3.0757935722       12.3088981339        9.5822494952
  C        -4.7371788487       13.4563516360       10.0743790597
  H         6.5885981449       12.9099832394       13.7548970437
  H         5.7693510315       13.0867684458       15.3712850334
  C         6.9462768217       14.8825858421       14.8112301754
  S         0.4004023114        5.3195618038       15.0784038391
  N         0.0618334449        5.7621421787       16.6168593376
  C        -0.3785613730        7.8214058124       17.8162338794
  H        -0.6456503310        9.9577970411       18.5343109210
  C         5.8884683675       14.5865990216       -3.3912380907
  N         5.8571418864       15.9979482975       -3.5212215840
  O         5.2821777848       17.8544749186       -2.2363612544
  H        -4.7686132656       13.0047596566       11.0714432297
  H        -5.1717765890       14.4518225213       10.1650500841
  C        -5.5895652865       12.6360188710        9.0736490378
  H         6.3503554240       15.7125824702       15.2636272488
  H         7.7537075916       14.6386647213       15.5363607362
  C         7.5904462005       15.6097595276       13.6511007856
  C        -0.6605516562        7.0971636395       18.9685494574
  S         6.3441816031       13.6551599299       -4.8248688297
  C         5.9784075855       16.6878853899       -4.8034004964
  H        -4.9176791982       12.2656221583        8.3080217861
  H        -5.8813933412       11.6798277998        9.5923055741
  C        -6.7684064958       13.3836329365        8.4606680710
  H         7.0566029794       15.3447489423       12.6707916099
  H         8.5874982167       15.3284203217       13.5215632431
  C         7.6090044294       17.1891534582       13.8355294484
  H        -0.6781373831        6.0212652696       18.8424451073
  C        -1.1004137527        7.4320420838       20.2056768803
  H         6.7413786405       16.1942915398       -5.3549802939
  H         6.2425848354       17.7654239026       -4.6483536342
  C         4.5226746038       16.7070699976       -5.5384097403
  H        -7.2556844181       12.7925720835        7.6374885578
  H        -6.4075228044       14.3235688637        8.0460402226
  C        -7.8358638212       13.6721962611        9.5599687446
  H         8.1001191489       17.5490471421       12.9080422525
  H         6.6646998778       17.5785022637       13.7236948401
  C         8.2515817596       17.6875133764       15.1052644937
  S        -1.3312203445        9.0334545845       20.8822204757
  C        -1.3559768992        6.3147631871       21.1297957756
  H         4.4196370687       17.2268739487       -6.4523877705
  H         3.7989727475       17.2135997844       -4.8321835399
  H         4.1149863412       15.7366429444       -5.7437872560
  H        -8.7694818771       14.0329079359        9.1300966004
  H        -8.1782043229       12.7423230608        9.9441367850
  H        -7.4888508544       14.4382764107       10.2700056234
  H         9.0336774628       17.0572810848       15.6211428781
  H         8.7315944643       18.6466355096       14.8927350166
  H         7.4813548096       17.9152492195       15.8259297522
  C        -1.8247374621        8.1734154455       22.3795651864
  N        -1.9088163332        6.7673730844       22.2716753578
  O        -1.2756686405        5.1103604527       20.7901946009
  S        -2.1676740834        8.9129618443       23.9619633337
  C        -2.1176810369        5.8206037304       23.4014654730
  H        -2.3686462825        4.7831077975       23.0081830012
  H        -2.8366744966        6.0027136704       24.0676966114
  C        -0.8618914815        5.6593884684       24.2081158413
  H        -0.6318560053        6.5175842201       24.9180973055
  H         0.0578833529        5.4417855681       23.6339703152
  H        -1.0412559620        4.7343751949       24.8094303862
