352
i =
  H        -3.2566214099       14.4408392586       16.2362042165
  C        -3.0551428054       13.3744898438       16.3055677540
  H        -4.0397003812       13.0340293598       16.5128674618
  C        -2.0022567335       13.2678995618       17.3782113654
  C        -2.6817876333       13.0015419605       14.8656698844
  C        -2.4560268680       13.8072169827       18.7078568179
  H        -1.6977586206       12.1969767877       17.5069551423
  H        -1.0613076826       13.8792794645       17.0442051908
  H        -1.7129246287       13.4627626469       14.5265062964
  H        -2.3913138347       11.9544338866       14.7689669682
  H        -3.5324702174       13.1849702056       14.2414587363
  C        -1.4119519368       13.4830894549       19.7411118739
  H        -3.3881363172       13.4585734584       18.9678055528
  H        -2.5754784198       14.9065421336       18.6389132497
  C        -1.9750208348       13.3775898270       21.1839902149
  H        -0.7075477576       12.6760127293       19.4917599094
  H        -0.6453294788       14.3117200474       19.6311808719
  C        -0.9930834342       12.6841221939       22.1862009776
  H        -2.9220333674       12.8247675634       21.2499263814
  H        -2.1115761526       14.3927525440       21.6279384829
  C         0.1673500890       13.5889098338       22.5823659367
  H        -1.5170924460       12.2224348997       23.0333440626
  H        -0.5876576851       11.7186427402       21.7394060898
  C         1.3585903162       12.9960807409       23.3924609402
  H         0.6338836604       13.8866881233       21.6419349560
  H        -0.1919026177       14.5659014710       22.9029078663
  C         1.7177978463       11.6483724338       22.7187081162
  C         0.9290967113       12.2973831642       24.6429742400
  C         2.5309917325       13.9785349932       23.5026948832
  C         1.4577765414       10.5996333937       23.4559567824
  C         2.0507241602       11.3594433282       21.4180360849
  C         0.9172220346       10.9465980520       24.7328717792
  C         0.3679320906       12.8780906869       25.7847581737
  H         2.8030997783       14.3719730557       22.5356876680
  H         2.3299292727       14.8046253613       24.1708807638
  C         3.8518684774       13.2458041782       23.9420032055
  S         2.0219796433        9.1352486862       22.7826606204
  C         2.3027555675       10.0227847137       21.2936095599
  H         2.1576867353       12.1178407211       20.6952801534
  C         0.5684976011       10.3331542237       25.8815295457
  H         0.2703550021       13.9279705705       25.6966849279
  C        -0.0399962479       12.3182014509       26.9348329235
  H         4.0666883016       12.4852873333       23.2423337243
  H         3.8047884926       12.7635831665       24.9083403314
  C         5.0310910541       14.1506126164       24.1407657590
  C         2.6786286539        9.3411087774       20.0072934272
  C         0.0720809033       10.9644446238       26.9994786033
  H         0.5410186499        9.2800731210       25.9036672782
  C        -0.5037043432       12.7304522749       28.0940770833
  H         5.7702108514       13.6362625605       24.7245716624
  H         4.7338476612       14.9210663211       24.8549355819
  C         5.5650653869       14.9158813383       22.8764223524
  C         2.6945318078        7.9442173861       19.8599391080
  C         3.0643888019       10.1496001059       18.7489667803
  C        -0.3273655045       10.2922380772       28.2125144738
  C        -0.6939958122       11.6131034657       28.8651695265
  S        -0.8921321461       14.1829829385       28.8588906241
  H         6.2903403931       15.6241516440       23.3235379720
  H         4.7533449674       15.5107699393       22.4300113231
  C         6.2854978500       14.1660505201       21.7575493796
  N         2.3461563941        6.9946400779       20.8378221935
  C         2.9967312239        7.3589613698       18.6514323464
  C         3.1211231903        9.5015710616       17.5559179829
  H         2.9798332485       11.2071884285       18.7216867215
  C         0.7965488880        9.5003426874       28.9820478689
  C        -1.6649972291        9.4369105477       28.0017129378
  C        -1.2393395703       11.9145679748       30.1428868434
  C        -1.3767070906       13.2558250959       30.2778537480
  H         7.1403753871       14.8206420749       21.4555545043
  H         6.7925967005       13.3131901532       22.0747553220
  C         5.4053733059       13.8358425561       20.5074370452
  S         2.4084077759        5.5638345698       20.1182858387
  N         2.7581908221        6.0188295295       18.6626590689
  C         3.2409079986        8.0690913166       17.4425484307
  H         3.4267005077       10.0014601211       16.6523188803
  H         1.0243222542        8.7049720448       28.2201422002
  H         0.3198929886        8.8954775373       29.8018617965
  C         1.9718621325       10.3572842100       29.5449373931
  H        -1.5580171262        8.6034528667       27.4084549814
  H        -2.0788590398        9.2046517149       28.9474223133
  C        -2.7482049563       10.1973611442       27.2279716796
  H        -1.2687988261       11.1146716677       30.7993270568
  C        -1.6372708892       13.9654174633       31.6116491328
  H         4.6973548395       14.6821429789       20.2729604270
  H         4.7849019328       12.9736987622       20.7926385885
  C         5.9776008460       13.5411441849       19.1278447456
  C         3.4362593216        7.3389182571       16.1879520720
  H         2.3044823443       10.9788330074       28.7466894905
  H         1.4996478706       10.9024533801       30.3245851919
  C         3.0458316299        9.3664484691       30.1116899964
  H        -2.4132979690       10.6538786010       26.2908695452
  H        -2.8981303487       11.0860739998       27.7941109420
  C        -4.0351159173        9.3782975134       26.9380874824
  C        -1.6872375688       15.3659281441       31.7750801353
  C        -1.6987399595       13.1888427368       32.8507065914
  H         5.5339081267       12.5598221568       18.8791421148
  H         5.6025568412       14.2162774923       18.3679327670
  C         7.4714922079       13.2972266183       18.9852207921
  H         3.3920670561        6.2491269843       16.3593104686
  C         3.7165844894        7.7566079146       14.8472730198
  H         3.1294501195        8.5674675458       29.3810307411
  H         2.6585852379        8.8368290684       31.0676827089
  C         4.3687377316       10.0468275297       30.2492265620
  H        -3.7172407522        8.6445115590       26.2386148649
  H        -4.4064901348        9.0006788239       27.8349283095
  C        -5.1110560612       10.2748213420       26.3648663082
  N        -1.5647053524       16.3584578648       30.7355904807
  C        -2.0304272944       15.9866147961       32.9669781652
  C        -2.0509729403       13.8211199760       34.0691095371
  H        -1.5123321302       12.1117189294       32.7390878636
  H         8.1364078743       14.1809392785       19.1717468886
  H         7.7638075588       12.5250704651       19.6688917524
  H         7.6772027926       12.8516876940       18.0206101734
  S         3.9559650299        9.2903801685       14.3706192222
  C         3.7881531932        6.6364204587       13.8026068173
  H         4.5017827733       10.8830817760       29.5872533966
  H         4.4082846653       10.5629625691       31.1890627915
  C         5.6136159392        9.0837848986       30.2234296588
  H        -4.6732441800       10.7679685621       25.5327153867
  H        -5.3428334689       11.0331121022       27.1149309183
  C        -6.4344225722        9.5045913655       25.8479619010
  S        -1.6026224733       17.8178778071       31.4810731640
  N        -2.1898802563       17.3258242551       32.8819437120
  C        -2.2278085321       15.3188842349       34.1620975144
  H        -2.1573249481       13.1854571387       34.9363252982
  C         4.0608751381        8.6295983106       12.7426683957
  N         3.8985358778        7.2812418524       12.6003664823
  O         3.5488730984        5.4311868174       14.0494928533
  H         6.5335994564        9.6400915049       30.3361333976
  H         5.6320145708        8.6249327220       29.1918115403
  C         5.5820991435        7.9720321777       31.2421068215
  H        -6.1742946600        8.7155031132       25.1268272767
  H        -6.9039486365        8.8482045350       26.6341906203
  C        -7.4189791011       10.5307848570       25.2665045958
  C        -2.5285374864       16.0840075290       35.3272862914
  S         4.6014156830        9.5499760094       11.3462244060
  C         4.0168354759        6.5680553850       11.3279943837
  H         5.3798914610        8.3702863881       32.2331065637
  H         4.7532433502        7.3743214735       31.0382470434
  C         6.8508221556        7.2102305467       31.1071471161
  H        -6.9044610603       11.0470037954       24.4752368405
  H        -7.8260248795       11.2737026898       25.9763819013
  C        -8.5807375493        9.7583547174       24.6879792419
  H        -2.3122525809       17.1872183223       35.2972563403
  C        -3.1636999201       15.7966884266       36.4867349006
  H         4.9960195829        6.7821908563       10.7720952086
  H         4.0406863850        5.5132492814       11.5160150201
  C         2.9105019523        7.0022448771       10.3117520789
  H         7.1274090087        6.9655943461       32.1299429400
  H         7.7306313149        7.8255197189       30.7007087112
  C         6.6071580485        5.8835233131       30.3938858963
  H        -8.8284776282       10.5344691093       23.9138411155
  H        -8.3226139393        8.8194639342       24.3276458255
  C        -9.6917414389        9.6935856417       25.6724362846
  S        -3.7804356017       14.2870877051       36.9306639079
  C        -3.2264170464       16.7960211316       37.6178033775
  H         3.3224481630        7.7513906907        9.5958243698
  H         2.5226690985        6.1112300487        9.7445483551
  H         2.0124456438        7.4788191657       10.7504082238
  H         7.5396995584        5.3500230028       30.1929409091
  H         6.1377867435        6.1374442694       29.4522257930
  H         5.8935126214        5.2882771211       30.9314361263
  H       -10.5472959713        9.1663850232       25.2516680857
  H        -9.9947962188       10.6843293998       25.9944265014
  H        -9.3795427981        9.1796612548       26.6129906568
  C        -4.1082757221       14.9674688544       38.5680952899
  N        -3.8006609360       16.2560925405       38.7315377467
  O        -2.7103475000       17.9441913969       37.5808271380
  S        -4.9429541577       14.1910368342       39.9228905914
  C        -3.9527625809       17.0918301591       39.9145622821
  H        -4.3397976051       17.9968346940       39.5885072944
  H        -4.7175140325       16.7541003475       40.5591913734
  C        -2.6119632086       17.1708735871       40.6804092983
  H        -1.8139212399       17.2854163160       39.9541510385
  H        -2.5342276428       17.9854193202       41.3868309376
  H        -2.4511553323       16.2755673111       41.3419248722
  H         7.0064714962       11.4127970250        3.5153651037
  C         7.6089616583       10.5460315981        3.4175071236
  H         6.9503766078        9.6777825811        3.3629075359
  C         8.6050857146       10.3797548631        4.5306808967
  C         8.3305291763       10.5240905066        2.0937605890
  C         7.8518095790       10.4862147162        5.9028083738
  H         9.1623071798        9.4522844316        4.5296695068
  H         9.3517139707       11.1386052923        4.3389847031
  H         7.6927994294       10.7745934430        1.2242950606
  H         8.4644882040        9.4823427393        1.8759822983
  H         9.2335366797       11.1129926020        1.9516746891
  C         7.1019511442        9.2115248459        6.2765674208
  H         8.6525894590       10.6679959564        6.6474908868
  H         7.0893021094       11.2924838747        5.9611265051
  C         6.3565976620        9.2371646994        7.6504741973
  H         7.6750929366        8.2600666540        6.2041741594
  H         6.3785547809        8.8952710252        5.5831569288
  C         5.1022584205       10.1062215222        7.7101446620
  H         6.9962011299        9.6634472526        8.4685232926
  H         5.9934059704        8.2801385893        7.8526580427
  C         3.8111899745        9.6052451119        6.9895608251
  H         4.7666149614       10.3212462275        8.7000315034
  H         5.3593856272       11.0650874429        7.1939114312
  C         2.6693373522       10.5790340965        6.8018154223
  H         3.4415229805        8.7648511472        7.4856341871
  H         4.0627094898        9.1436553457        6.0303878127
  C         3.1389556302       11.8819373040        6.1246295810
  C         2.3073445284       11.2493391123        8.0004013598
  C         1.5466781869        9.9099525336        6.1182363240
  C         2.9199056693       12.9657662286        6.9490359638
  C         3.6880787687       12.3021064231        4.8635125855
  C         2.3617421028       12.5702045564        8.1205682179
  C         1.7864083265       10.6346928759        9.1270855814
  H         1.9321924720        9.5442589413        5.1414731528
  H         1.1925531852        9.1928914159        6.8061096903
  C         0.3321513050       10.8195933986        5.8583094586
  S         3.5041880371       14.4382493538        6.3118573586
  C         3.8619667968       13.6399297852        4.8103382046
  H         4.0049281636       11.4966009326        4.2068549393
  C         2.0323519689       13.2206959577        9.2547264799
  H         1.7982348526        9.5758035337        9.1301816809
  C         1.4811074725       11.2844167942       10.3042574214
  H         0.6522437116       11.8932879813        5.7496327142
  H        -0.2211387216       10.8475969750        6.7869595939
  C        -0.6202682040       10.3357488710        4.8018989296
  C         4.3322897397       14.3863769733        3.6362555006
  C         1.6032923873       12.6158879866       10.3920941098
  H         1.9502860161       14.2998127207        9.2220283343
  C         1.0710329498       10.8617901755       11.5833789728
  H        -1.5061565633       10.9802484370        5.0381646296
  H        -0.7747406872        9.2712256636        5.0254828115
  C        -0.0803268507       10.5811142816        3.4093579050
  C         4.4610341203       15.7742041876        3.4924347874
  C         4.7037028069       13.6145227328        2.4048527347
  C         1.1242804790       13.3760765642       11.6687262500
  C         0.8237994843       11.9809808346       12.3798303500
  S         1.0834196143        9.3523841531       12.2985709570
  H         0.9921855380       10.4695283297        3.3296156761
  H        -0.2819938322       11.6065122042        3.1940103818
  C        -0.7117153452        9.7121397077        2.2721027552
  N         4.3062177306       16.6486277010        4.5351413365
  C         4.7143087304       16.3959725084        2.2465478617
  C         5.1090264534       14.1875002220        1.1895179621
  H         4.8596200508       12.5402293592        2.4526181103
  C        -0.1595806390       14.2757241260       11.3121786141
  C         2.2118992981       14.0977884326       12.4615617575
  C         0.3697021325       11.4976204740       13.6163846811
  C         0.5395025405       10.1374876104       13.7568601462
  H        -0.3960755067        8.6893915589        2.3752158643
  H        -1.8018928461        9.5911021348        2.3239311545
  C        -0.3944648642       10.3128930527        0.8943865514
  S         4.3522872944       18.1715154127        3.8995952364
  N         4.6577728459       17.8028059656        2.3226542438
  C         5.0528955952       15.6828019371        1.0220235098
  H         5.4891349577       13.5820435404        0.3829327778
  H         0.0617775324       15.0198861770       10.5635685077
  H        -0.2628177710       14.8227332225       12.2397398828
  C        -1.4745844207       13.4768988608       11.0989219727
  H         2.6174932888       14.9339643677       11.8597711693
  H         1.7604243068       14.6283868943       13.3979945001
  C         3.4793810751       13.1971952060       12.8486743247
  H         0.1844401749       12.1644693938       14.4369101142
  C         0.4535573671        9.3796298161       15.0693644379
  H         0.5941061386        9.9321686149        0.5300689200
  H        -0.2413495554       11.3855840412        1.0050973098
  C        -1.4218788971       10.0597396093       -0.1652592853
  C         5.2508540654       16.3661936054       -0.1926738938
  H        -1.2933472672       13.0257492446       10.1458757040
  H        -1.5105929881       12.7449078227       11.8663451525
  C        -2.6964034822       14.3696805241       11.3379864890
  H         3.9808462055       12.7342663386       11.9677256808
  H         3.2190354842       12.3466190130       13.5564491800
  C         4.4062984481       13.9165448338       13.7495517640
  C         0.3816052943        7.9605676150       15.2231800953
  C         0.1731019183       10.0994242123       16.3019186880
  H        -1.5077877996        8.9829665056       -0.3897221821
  H        -2.3966248149       10.4690796295        0.2695533054
  C        -1.0907140904       10.7972684788       -1.5421726133
  H         4.9781590919       17.3854416015       -0.1088502730
  C         5.5795317497       15.9452572139       -1.4563925752
  H        -2.7007413523       15.1653754219       10.6067553673
  H        -2.5750646080       14.7665933893       12.3848183351
  C        -3.9907351162       13.5499305085       11.2546205863
  H         4.6240154237       14.9188137307       13.3468694956
  H         3.8278637895       14.1622634249       14.6177642194
  C         5.7525100060       13.2850604121       14.1006466850
  N         0.4602039804        7.1003384732       14.1288759490
  C         0.0013307380        7.3179545495       16.4056869812
  C        -0.0113166611        9.4931932926       17.5702810919
  H         0.1284139679       11.2286490385       16.3104050117
  H        -1.1262812674       10.1391257494       -2.4530263691
  H        -0.0818222829       11.1664150083       -1.3328348075
  H        -1.5825345937       11.7451507300       -1.6926728117
  S         5.9378060272       14.4167230056       -2.1479393123
  C         5.4962595507       17.0252786543       -2.5500277904
  H        -3.6885675062       12.5920775061       10.8092630790
  H        -4.3435579242       13.3327438990       12.2929398107
  C        -5.2054190153       14.2369679928       10.5419401178
  H         6.3562779457       13.1752419654       13.2451472903
  H         5.4383590749       12.2340042910       14.5215188519
  C         6.4753004280       14.2909814509       15.0165275400
  S         0.3128291382        5.6141667090       14.7191676074
  N        -0.0612760940        5.9785157546       16.2621983006
  C        -0.1579723773        7.9990840874       17.6673856533
  H        -0.0290749935       10.1443950740       18.4534468344
  C         6.2337051543       15.2427444442       -3.6434425541
  N         5.8542703342       16.5106481088       -3.7708549355
  O         5.0474068535       18.1668528533       -2.3037071940
  H        -6.0199508023       14.0275962475       11.2706613814
  H        -5.1242828046       15.2984805660       10.3559202258
  C        -5.3876477629       13.4482381405        9.1463038023
  H         5.7993605245       14.8697942088       15.5290370585
  H         6.9448496265       13.7238804324       15.8285248370
  C         7.4904176838       15.1884560487       14.4002493921
  C        -0.4928460281        7.2126455476       18.8079304579
  S         6.4207164466       14.3989827287       -5.1791869084
  C         5.6793685673       17.1803983640       -5.1082282960
  H        -4.6586788673       13.8572580443        8.4248870382
  H        -5.2639430643       12.4030751484        9.2943577974
  C        -6.7925703049       13.7590781006        8.4945806442
  H         7.2207892418       15.6197015611       13.4287203558
  H         8.3297678095       14.6090003622       14.0858346281
  C         7.8501468480       16.3889838053       15.3722008205
  H        -0.4286669330        6.1057408662       18.7449714202
  C        -0.8678852804        7.6173283743       20.0947587374
  H         6.4815388602       16.9367725939       -5.7800649498
  H         5.8664041164       18.2525814765       -4.9997705478
  C         4.2127359835       17.0224359140       -5.5509598351
  H        -6.8088335893       13.0943611273        7.5718579175
  H        -6.8056024108       14.8242760768        8.1794087706
  C        -7.9495335186       13.4361248618        9.4020016886
  H         7.4335010375       16.1484063405       16.2729495278
  H         8.9320186054       16.4419528708       15.3731368230
  C         7.3570277593       17.7759823845       15.1128833604
  S        -1.1434889443        9.2291909684       20.5870255113
  C        -1.0422078891        6.5868098956       21.1132016507
  H         3.8112898929       17.8940200039       -5.9603758441
  H         3.4457278579       16.8323710810       -4.8087320958
  H         3.9662556959       16.3261049440       -6.3520580583
  H        -8.3614438646       14.2345740580        9.9445851477
  H        -8.7659796997       13.0564573810        8.8035673452
  H        -7.5639619247       12.6791524785       10.0160238050
  H         7.6422991405       18.4796764125       15.9385460700
  H         7.7008903766       18.1811307871       14.1665976730
  H         6.3189787671       17.7570467837       15.2054456408
  C        -1.4881972849        8.4763464569       22.2028275856
  N        -1.4133795294        7.1538210650       22.2783467023
  O        -0.8401771440        5.3995687488       20.9364057723
  S        -2.2002030476        9.3042970398       23.5766454941
  C        -1.5482547939        6.3675628713       23.5413133900
  H        -2.0552588857        5.4690610196       23.1369095272
  H        -2.2361745793        6.8492240563       24.2199028253
  C        -0.1622647987        6.0791139173       24.1396143762
  H         0.1123631861        6.7337745518       24.9258360772
  H         0.6665746352        5.9584333440       23.4144369882
  H        -0.2139071413        5.0675524979       24.5408163765
