352
i =
  H        -3.0491286975       15.0767215199       16.6449665266
  C        -3.0281787458       14.0122201620       16.5509881842
  H        -3.9647977104       13.6115171797       16.7890270394
  C        -2.1088909167       13.4010151023       17.6105548440
  C        -2.8628852812       13.5731857490       15.1776054586
  C        -2.3152760142       13.9345966462       19.0771818827
  H        -2.3865349693       12.3462482804       17.5865875989
  H        -1.0566182270       13.5829222237       17.5180719116
  H        -2.5731834073       12.4912797572       15.1709053640
  H        -3.7497695431       13.6568081530       14.5506238133
  H        -1.9366925077       14.1065377910       14.7021508363
  C        -1.7950446627       12.9056619403       20.0093397250
  H        -3.4294387106       14.0097961906       19.1519618698
  H        -1.7924719555       14.8723975224       19.2395967199
  C        -2.1907275126       13.1997704355       21.4543809023
  H        -2.0322274322       11.9226057888       19.7770696415
  H        -0.6681429082       12.7097044259       20.0492152220
  C        -1.2323049579       12.6904460730       22.4772101057
  H        -3.1152509954       12.5852696549       21.6428720750
  H        -2.5458622703       14.1919326709       21.6612982777
  C        -0.1117923259       13.6289625901       22.7199123686
  H        -1.6226565138       12.5428615539       23.4938494574
  H        -0.7352142965       11.7967531999       22.1231254690
  C         1.0678876211       12.9947683639       23.4044922746
  H         0.1303489649       14.1347871695       21.7096755279
  H        -0.3598105615       14.4380557866       23.4483322169
  C         1.5302147317       11.5951449875       22.7855229667
  C         0.6636263448       12.3828076890       24.6961803351
  C         2.3684641809       13.9269467901       23.4184333045
  C         1.2695995005       10.5268608697       23.6761755435
  C         2.0031513894       11.2145388704       21.4978947077
  C         0.8395793897       11.0090986913       24.8978745500
  C         0.1284387769       12.9514403038       25.8352502051
  H         2.5187145853       14.2727020363       22.3763067877
  H         2.0787479313       14.7265359483       24.1571267904
  C         3.5663816637       13.1668806438       24.0471270237
  S         1.6476780168        9.0976213536       22.9840284628
  C         2.0805778941        9.8864162445       21.4602821080
  H         2.0477499322       11.8881439208       20.6561444811
  C         0.3570290785       10.4207871111       26.0643169578
  H         0.1314682941       14.0575914395       25.7885928672
  C        -0.2601689830       12.3667597664       27.0416034768
  H         3.7265009075       12.1408264368       23.9974992813
  H         3.2939950491       13.1442522275       25.1371191219
  C         4.8564975899       14.0048203371       24.1317886689
  C         2.3803394074        9.1241836409       20.2664490982
  C        -0.2390542857       11.0360221047       27.1829125140
  H         0.5106950615        9.3655261679       26.0905133386
  C        -0.7173349009       12.7490126589       28.2178571637
  H         5.3926174316       13.4447461118       24.9576290661
  H         4.6856576892       15.0174513542       24.5696317035
  C         5.5292424201       14.1106579530       22.8806618566
  C         2.2165496037        7.7482383740       20.1562372024
  C         3.1161098146        9.8471515601       19.1774555899
  C        -0.7603339364       10.3210142408       28.4523422607
  C        -0.9544633566       11.6738942480       29.0189323233
  S        -0.9509664286       14.2988724627       29.0401310071
  H         6.2612863328       14.8994633373       22.9645268696
  H         4.7087869559       14.5335807740       22.2021175589
  C         6.0221245104       12.7943263542       22.3906142179
  N         1.9812201550        6.8488141411       21.2351767637
  C         2.4219247117        7.0616708326       18.9177006392
  C         3.3477254043        9.2318393280       17.9431765681
  H         3.3808527500       10.8658097069       19.2797101715
  C         0.3348606746        9.5484585091       29.1966227004
  C        -2.0252990436        9.5668326002       28.0536843055
  C        -1.2828638724       12.1096915071       30.2969130147
  C        -1.3172701216       13.4629957464       30.4952361200
  H         6.4681491078       12.1356810188       23.1319589935
  H         5.1191495204       12.3731653700       21.9959978410
  C         7.0000797251       12.9047679564       21.2675239293
  S         2.0451891523        5.3638467307       20.6949535882
  N         2.2410261707        5.6403542606       19.1198634650
  C         2.9745247097        7.7396349838       17.7696700526
  H         3.7571379706        9.8142822422       17.0199504150
  H         0.8528289581        8.9889647460       28.4158940974
  H         0.0105144951        8.8794533326       29.8687896148
  C         1.6022834777       10.3192867516       29.7526600530
  H        -1.6449682444        8.9005288460       27.2893372736
  H        -2.3032067345        8.9638460145       28.8685669286
  C        -3.2440378618       10.3211496812       27.5946039814
  H        -1.6754171583       11.3896674081       31.0024067785
  C        -1.7841553020       14.1496948171       31.6830451731
  H         7.6669506069       12.0510244972       21.2092669988
  H         7.6769897049       13.6777023800       21.7107826135
  C         6.4161844395       13.3696717407       19.8722145882
  C         3.1921690325        7.0760630881       16.5122729388
  H         1.9901645978       10.7416203341       28.8217106326
  H         1.4827796596       11.1421011441       30.4045844804
  C         2.7030900990        9.3016987621       30.1681831566
  H        -2.9502202990       11.0254889649       26.8952403943
  H        -3.6343042212       10.9101571738       28.4734098393
  C        -4.3636584992        9.5401103175       27.0554411316
  C        -1.7620691764       15.5402524833       31.7824722629
  C        -2.0642241891       13.3697216166       32.8838974882
  H         5.7855975618       12.6108122999       19.5606175987
  H         5.7014671172       14.2157805579       19.9428716281
  C         7.4095226577       13.8487351375       18.8261333237
  H         3.3444529135        5.9708206897       16.6566614195
  C         3.5441245346        7.4479418516       15.2805971846
  H         3.0403376197        8.6408524062       29.3569163684
  H         2.4148999991        8.6163258122       30.9016067555
  C         4.0531565965        9.9108796501       30.6137602784
  H        -4.2171062498        8.7718677243       26.2851399821
  H        -5.0074015876        9.0811660577       27.7987368649
  C        -5.5970114724       10.3766080651       26.3619600611
  N        -1.5285483187       16.4425209929       30.7607802582
  C        -1.9667698768       16.1486914581       33.0331418537
  C        -2.3154453015       13.9855057641       34.1061130860
  H        -1.9914711825       12.3776088168       32.8018438801
  H         8.0641980999       14.5645657479       19.2652552169
  H         7.9642348475       13.0298734112       18.5756822451
  H         7.0662837061       14.1668195463       17.8999514972
  S         3.6636415482        9.0269215390       14.6186777123
  C         3.4712801679        6.3517904443       14.2071551877
  H         4.2102872564       10.8422192080       30.1308073612
  H         3.9648376076        9.9500341998       31.6345885441
  C         5.2831500682        9.1601165439       30.2042265312
  H        -5.1337206911       11.1792619408       25.6602561688
  H        -6.2539866076       10.8971717872       27.2278167296
  C        -6.4568080042        9.4044112000       25.5276989341
  S        -1.5525777516       17.9522803809       31.3199623748
  N        -2.0302675301       17.5877895803       32.8541511149
  C        -2.3063469716       15.4228133854       34.2190835719
  H        -2.6348301581       13.5046048414       34.9735609604
  C         3.8732913085        8.2827056895       13.1213284463
  N         3.7108119309        6.9355364760       13.0573404930
  O         3.2565007682        5.1470874264       14.2797920639
  H         6.2279954708        9.7120991952       30.2819269937
  H         5.1710748043        8.9955136222       29.2279268589
  C         5.4095192864        7.8345648477       31.0160712531
  H        -5.8164741770        9.1866163085       24.7518635541
  H        -6.7043184857        8.5248147596       26.0339993096
  C        -7.7139374678        9.9903142368       24.8831015906
  C        -2.6572991771       16.1006111182       35.4559444096
  S         4.2577022646        9.0638889065       11.5979478863
  C         3.5691093341        6.1432890912       11.8180121986
  H         5.9171407000        8.0375801779       31.9834620726
  H         4.4961314395        7.2954694788       31.1403846759
  C         6.0834265083        6.8607283911       30.1109121909
  H        -7.7145448412        9.5605211872       23.8701077951
  H        -7.5772320560       11.0104675400       24.9747503967
  C        -8.9453893386        9.6358078688       25.6305286944
  H        -2.4553005501       17.1636890913       35.3837803929
  C        -2.9979001452       15.7687910708       36.7210652971
  H         4.1837752973        6.3942602267       10.9622135382
  H         3.8848573251        5.1728832489       12.0989647246
  C         2.0722166892        6.0435436868       11.2547726895
  H         7.0884924317        7.1378415827       29.7835380588
  H         5.4346093284        6.7008520448       29.1846389264
  C         6.3487055806        5.5299787996       30.7584003700
  H        -9.6876758657        9.9032229407       24.8875060846
  H        -9.0856861341        8.4988406945       25.7497251151
  C        -9.2814355328       10.4450300848       26.9618978752
  S        -3.3539641852       14.1320066585       37.2835295143
  C        -3.1382041506       16.8376810995       37.7661433192
  H         1.7260181533        7.0425808519       11.0105589544
  H         2.0351954801        5.4681036968       10.3814677711
  H         1.3559944613        5.6538790539       11.8793422660
  H         5.3683552006        5.1403631713       30.7572489521
  H         6.5576701960        5.5833585009       31.8147381405
  H         7.0037487456        4.8045604796       30.2802261983
  H        -9.4884524175       11.5327048717       26.6948949182
  H        -8.4298143485       10.2372984866       27.6418571099
  H       -10.2225430516       10.0663807082       27.3821723036
  C        -3.7510659315       14.8973697845       38.7582104678
  N        -3.6521879087       16.2647527800       38.8255035220
  O        -2.8621559169       18.0352467970       37.6610867898
  S        -4.1861569996       13.9679423725       40.1609665950
  C        -3.9925692978       17.0395881380       39.9830100569
  H        -4.2187608744       18.0769867928       39.7280217396
  H        -4.9155597085       16.7220061158       40.4692878883
  C        -2.7615610993       17.0117722222       40.9466501687
  H        -2.0110108103       16.3778977506       40.5219551914
  H        -2.4102016111       17.9960267845       41.2484105844
  H        -3.0449188632       16.4979590606       41.8758692445
  H         7.2138028399       11.1276774644        2.9015917798
  C         7.9046243460       10.2892145121        3.0574425318
  H         7.3776740613        9.3546895489        3.1278858198
  C         8.7018404877       10.2557638902        4.2897594391
  C         8.7153531904       10.1130845028        1.8465734506
  C         7.8173226252       10.5375152202        5.5499600481
  H         9.3153192776        9.2747166378        4.3528740044
  H         9.5372188149       10.9551405239        4.2450210606
  H         8.3165666453       10.2872468721        0.8687502973
  H         9.2323969431        9.1824311939        1.8793601715
  H         9.5935876176       10.8039821353        1.8737213843
  C         6.9707692201        9.3398908975        5.9291502311
  H         8.3496818422       10.9044785342        6.4091690644
  H         7.0199129182       11.2507859208        5.5337171670
  C         6.5620741229        9.5520427912        7.4012678623
  H         7.8402237364        8.6734483515        5.8372358116
  H         6.0736579348        9.2814740554        5.2752168594
  C         5.2952837162       10.4491179994        7.6872364955
  H         7.3891676020        9.7529541009        8.0831972326
  H         6.2888099862        8.5011877114        7.6648997593
  C         4.0104422385        9.8490270093        7.3657516531
  H         5.3248311503       10.5796971772        8.7358649068
  H         5.4287144802       11.3975890916        7.1552076791
  C         2.8233881352       10.6981216582        7.0952773604
  H         3.7802668846        9.2948452379        8.3518465182
  H         4.1780143085        9.0813382157        6.5906750035
  C         3.2023119571       12.0593727176        6.4538815443
  C         2.3573580340       11.5372074657        8.3102424887
  C         1.7180914713        9.9797280096        6.2601634189
  C         2.9824090684       13.1737602832        7.1985897907
  C         3.8735832462       12.5019711182        5.3019763698
  C         2.4576548809       12.8857040085        8.4256037269
  C         1.9991834582       10.9379118503        9.4903220615
  H         2.0739322525        9.6158681129        5.3010653941
  H         1.3502483983        9.0839589076        6.8444586971
  C         0.4920168694       10.8395859769        6.1262653315
  S         3.1741015834       14.6536393782        6.3899547794
  C         3.9100643429       13.8645257144        5.0406076407
  H         4.2107782493       11.7370284484        4.5901069927
  C         2.1149947685       13.4920572042        9.5862058012
  H         1.9719874062        9.9044655301        9.5706235184
  C         1.5389263580       11.5196894063       10.6165426283
  H         0.7635128996       11.8806996946        5.7997607827
  H         0.0557482044       10.9599653518        7.1525665872
  C        -0.4926870564       10.2076298996        5.1003019606
  C         4.4128339362       14.4805411237        3.7316247975
  C         1.6219528554       12.8483030993       10.7192708968
  H         2.3423643643       14.5164923446        9.6399830519
  C         1.0940186844       11.0540580825       11.8123519594
  H        -1.5630122714       10.3218723583        5.4768377978
  H        -0.4052323258        9.1913117708        4.9906048175
  C        -0.3222343731       10.5224714671        3.6638286109
  C         4.3915518078       15.8337200158        3.4077552736
  C         4.7536254471       13.6870839808        2.6188292963
  C         1.2099909826       13.4534275500       12.0110507632
  C         0.9045341456       12.1006662328       12.6657438982
  S         0.8288954183        9.5480831295       12.5394784017
  H         0.5323510943        9.9415251767        3.3581165513
  H         0.1079421983       11.5594652827        3.5169867936
  C        -1.4726535461       10.0084933426        2.7524385072
  N         4.0044792847       16.8090222500        4.3373010738
  C         4.6917626816       16.4115611316        2.1544995368
  C         4.9940895050       14.1379905015        1.3505562409
  H         4.7381223995       12.5605774728        2.6843454472
  C        -0.0101955304       14.3935001174       11.8198182332
  C         2.2641201811       14.0443906027       12.9324133025
  C         0.3844698331       11.6651769637       13.9238881955
  C         0.3354968725       10.2743811615       14.0112034937
  H        -1.8672715499        9.0281938735        3.1868587552
  H        -2.3059004724       10.7014756156        2.6758993560
  C        -0.8334855501        9.7323502592        1.3181161918
  S         3.8291943698       18.2751841035        3.6435039011
  N         4.4264414940       17.8397630654        2.2053304807
  C         4.9711920886       15.6248500559        1.0136040620
  H         5.0288121462       13.5599911679        0.5057897513
  H         0.1661492662       15.2470975701       11.2867763904
  H        -0.1991535458       14.8184814378       12.8484406296
  C        -1.2641163933       13.6013703038       11.4621856676
  H         2.5881227430       14.8837648961       12.3065857264
  H         1.9316238996       14.4202217792       13.9219241391
  C         3.3977784993       13.1520889902       13.2863250433
  H         0.1844224232       12.4417180794       14.7297910292
  C         0.0789034740        9.4225621982       15.2690974848
  H        -0.6511394223        8.5992956159        1.0617619083
  H         0.1478464615       10.2021085809        1.1699524082
  C        -1.7670260359       10.1810383739        0.1638171344
  C         5.0102109983       16.2353684064       -0.2421517234
  H        -0.9405728650       12.8634295443       10.7510569710
  H        -1.6882063837       13.2573576756       12.3477223058
  C        -2.3003049013       14.4808717531       10.5966054615
  H         3.8285071567       12.6573499445       12.3723948481
  H         3.2416348114       12.3498094056       13.9967359600
  C         4.6171732629       13.9629235150       13.8774966513
  C         0.0534099731        8.0195944894       15.3696769619
  C        -0.1086966660       10.1302065169       16.6139839589
  H        -2.8342466729        9.7067690397        0.1342047844
  H        -2.1261341326       11.1829138133        0.4946262112
  C        -1.1295189851       10.1744894187       -1.1151087421
  H         5.1414812746       17.2824880721       -0.1058026389
  C         5.3841784382       15.7304141124       -1.4385067572
  H        -1.7789095810       15.1560339837       10.0033470369
  H        -3.0391382907       15.0966841446       11.1077934198
  C        -3.2091685781       13.6185969452        9.7389257339
  H         4.9761062746       14.7354643002       13.2145722197
  H         4.3135550830       14.4961467001       14.7975199820
  C         5.8185650742       13.0757806549       14.1866137154
  N         0.1928576618        7.1041351515       14.3246195129
  C        -0.3308759281        7.3754094544       16.5422183583
  C        -0.2503359763        9.4137919211       17.7853919966
  H         0.0545174812       11.2232788677       16.6288825494
  H        -0.3158460005        9.4300235681       -1.1718943790
  H        -0.7998627226       11.2091359292       -1.1742100786
  H        -1.7622878420       10.0904336431       -2.0284214525
  S         5.5695410837       14.0690620357       -1.8507856856
  C         5.5412917660       16.7618215764       -2.6477861403
  H        -2.7878226266       12.8564730075        9.0946341419
  H        -3.6606995586       12.9886003174       10.4610070358
  C        -4.5385054313       14.3411954250        9.1424928025
  H         5.7150151956       12.2676572177       13.3897659045
  H         5.7062911883       12.5361083039       15.0774759979
  C         7.0894552477       13.9076203251       14.2432749147
  S         0.2409780570        5.6115446014       14.8991049244
  N        -0.2841965630        5.9639235769       16.3862074537
  C        -0.5849118062        8.0011989225       17.7871604668
  H        -0.0716400462        9.9247804346       18.7238386843
  C         5.8692810532       14.6818855974       -3.4436027098
  N         5.9323026646       16.0459617785       -3.6598857558
  O         5.3232566773       17.9288448710       -2.5944536818
  H        -4.8583551776       15.0246682390        9.9132498463
  H        -4.2331129802       14.8683359288        8.2957348594
  C        -5.6284796584       13.3951280435        8.9753135453
  H         7.8195651000       13.2611527694       14.7370669301
  H         7.5949501636       14.1343543259       13.2989065171
  C         7.0266074623       15.2280754815       14.9608591176
  C        -0.8737096689        7.1984418235       18.8975635869
  S         6.1689295721       13.7164868096       -4.8301474982
  C         5.9035477335       16.7165753371       -4.8786687679
  H        -5.4962167761       12.6277293314        8.2043671372
  H        -5.8161446306       12.7012457603        9.8233290665
  C        -7.0524348596       14.0106631889        8.7479403165
  H         7.7668142368       15.2057579076       15.7039176128
  H         6.1257541816       15.3244927890       15.5180426527
  C         7.0969148725       16.4369032141       14.0158623030
  H        -0.8489759038        6.0989974363       18.7434441536
  C        -1.2740687850        7.5267420200       20.1500920890
  H         6.6566691670       16.2234691448       -5.4974711701
  H         6.1803010689       17.6748952073       -4.8482383878
  C         4.5452594518       16.6564529752       -5.5144440196
  H        -7.5618273991       13.5701089139        7.9707113669
  H        -6.9179406977       15.1294654195        8.7111307742
  C        -7.8917468311       13.8273888426       10.0123987987
  H         7.3343210377       16.3375092678       12.9072328764
  H         6.1749020442       16.8064797115       14.1804669167
  C         8.0969734178       17.4371899468       14.5979596440
  S        -1.3492346249        9.0939541233       20.8433743623
  C        -1.5085026033        6.4194776342       21.0748966844
  H         4.3129320183       15.7639866451       -5.8549099538
  H         4.5577504600       17.3462521036       -6.3483098743
  H         3.8406098935       17.0957269644       -4.8030110104
  H        -7.3920383775       14.1575386641       10.9380604444
  H        -8.8426726869       14.3165943814        9.9559903451
  H        -8.2417670899       12.8643456672       10.0924249649
  H         8.1699739431       17.3984192802       15.6980317960
  H         9.0931776773       17.4225082865       14.1839280033
  H         7.4779360555       18.3272239767       14.4014446075
  C        -1.8833346902        8.2190778715       22.3289552245
  N        -1.9204312985        6.8237754840       22.2669061712
  O        -1.2676631535        5.2491411467       20.7996271770
  S        -2.3426149792        9.0088365979       23.8578028212
  C        -2.0499816092        5.9331199847       23.4187926658
  H        -2.5017834877        4.9945668166       23.1811976646
  H        -2.6859299169        6.3543499008       24.1443971496
  C        -0.7702398850        5.6983497171       24.2187505927
  H        -1.0862448496        4.7421815374       24.7095216221
  H        -0.6225247669        6.6475986929       24.8398038170
  H        -0.0095471073        5.5876267259       23.5447712758
