352
i =
  H        -3.4520261010       14.6290702375       16.6706145907
  C        -3.6587352184       13.5890489289       16.4664203697
  H        -4.7040236420       13.5787100873       16.3864977330
  C        -3.0642869019       12.8866811453       17.6268860956
  C        -3.0148626925       13.0820984325       15.1458679330
  C        -3.0765738521       13.6090814261       18.9741168686
  H        -3.7385575950       12.0866820416       17.8704548307
  H        -2.0322041141       12.5264587992       17.4715450596
  H        -3.0104724032       13.8277026169       14.3874981620
  H        -2.0031600751       12.6723506662       15.1623152186
  H        -3.5717890436       12.2596412321       14.7191350476
  C        -2.5534064958       12.6691945688       20.1155173529
  H        -4.0790766439       13.9117649959       19.0647180534
  H        -2.4418683392       14.4685723061       18.9509064195
  C        -2.6268342203       13.2476838338       21.5202802029
  H        -3.1999372908       11.7970518968       20.1907244050
  H        -1.5683194784       12.0991767346       19.8566254816
  C        -1.6175144829       12.5415113986       22.4098718825
  H        -3.6735816902       13.0372005561       21.8553406839
  H        -2.4486319673       14.2569250643       21.4907857631
  C        -0.3439253248       13.3879651501       22.6570696018
  H        -2.0497818076       12.3364373126       23.4185692398
  H        -1.3076596680       11.5472247917       22.1371436095
  C         0.7939471568       12.6655462226       23.3670868711
  H         0.0211336181       13.8067232947       21.6980595606
  H        -0.6734704836       14.3055938208       23.1938086668
  C         1.1423031140       11.3832025910       22.5877947892
  C         0.4802865170       11.8676678381       24.5934588291
  C         2.0453841426       13.6554236658       23.3860309853
  C         1.0714307765       10.2792744000       23.4228217223
  C         1.6151447388       11.0462875768       21.3316747410
  C         0.5373258565       10.5435425761       24.6792217521
  C         0.0546327253       12.3938314871       25.8583852271
  H         2.0266953493       14.0139386816       22.3558332666
  H         1.8013832379       14.5834208751       23.9322457099
  C         3.3862475599       13.0384316453       23.7549827347
  S         1.5277537600        8.8020561447       22.6148689527
  C         1.7898170062        9.7003808997       21.1733255788
  H         1.8476628631       11.8325932312       20.5627840969
  C         0.0940064419        9.8752572045       25.8047997317
  H        -0.0751836835       13.4533198234       25.8800717625
  C        -0.3867608038       11.7823429429       26.9690322872
  H         3.7912889528       12.3888191384       23.0545474719
  H         3.2463339739       12.4116111164       24.6201213005
  C         4.4575531185       14.1430048488       24.0692928702
  C         2.2578483352        9.1100284646       19.8821723327
  C        -0.4688359112       10.4471006679       27.0031997693
  H         0.0520058330        8.7600463711       25.8470373595
  C        -0.8457440585       12.1189297324       28.2801193237
  H         5.2386790285       13.8303672478       24.8162779962
  H         4.0194098680       14.9781825014       24.6931875104
  C         5.2143106562       14.7323658299       22.9829253655
  C         2.3193692438        7.7691585061       19.6652928834
  C         2.5564233598        9.9813749326       18.7108424920
  C        -0.9638103761        9.6857173796       28.2264221785
  C        -1.2500301817       10.9924642334       28.9508276898
  S        -1.2023028589       13.5834715478       29.0475612118
  H         5.9348164479       15.5048640780       23.1876335501
  H         4.5729627401       15.1642222106       22.2923596747
  C         6.0463693502       13.6052169733       22.3437334920
  N         2.0986301916        6.8399903063       20.6294387768
  C         2.4760656692        7.1785009977       18.3960198619
  C         2.9977132838        9.3843764166       17.4956555959
  H         2.5382343467       11.0550096118       18.7759634235
  C         0.1310585445        8.8835667107       28.9931264688
  C        -2.3504433965        8.9713971577       27.9839315560
  C        -1.8380713671       11.4018253282       30.2190085838
  C        -1.7375380338       12.7645786840       30.3956847453
  H         7.0209732461       13.9192834042       22.2388406577
  H         6.1047829299       12.7099028743       23.0142580631
  C         5.5396446436       13.0697503300       21.0057797461
  S         1.7550068269        5.4613259466       19.9335216168
  N         2.2059729687        5.8387959567       18.4382756320
  C         2.9512195702        7.8744740443       17.2758282331
  H         3.3870024814       10.1053816056       16.7480522800
  H         0.3422585495        8.0095130995       28.4698182905
  H        -0.3395761726        8.4683952995       29.8033014101
  C         1.4553157112        9.5829589538       29.3822625562
  H        -2.2478106048        8.3950405817       27.0342435616
  H        -2.7689766629        8.3862001143       28.7748052707
  C        -3.5065401783        9.9619554038       27.7962854144
  H        -2.0926058347       10.6790208891       30.9978631618
  C        -2.0500080167       13.5052104696       31.6900287745
  H         4.5686112647       13.6674436554       20.8287014125
  H         5.3228767792       12.0418230890       21.0538965397
  C         6.3374506947       13.2895192941       19.6895086580
  C         3.3211947691        7.2224971911       16.0847879026
  H         1.8107733391       10.1570210796       28.5270710624
  H         1.3029391913       10.2603735777       30.2166105620
  C         2.4685694184        8.5787848993       29.7733063530
  H        -3.3434393775       10.8022543698       27.0662850322
  H        -3.8611836498       10.4086955004       28.6825461421
  C        -4.7161077698        9.1345192920       27.2757220929
  C        -2.1097235928       14.9542021838       31.8199825812
  C        -2.2921095195       12.7563497077       32.9496204891
  H         5.9172323502       12.5255610039       19.0221949522
  H         6.1409562520       14.2278150434       19.1668892770
  C         7.8472518507       13.0113089340       19.8301935039
  H         3.2271150117        6.1580450491       16.1710116544
  C         3.5493062879        7.6184175465       14.7967610337
  H         2.8806836416        8.0673937206       28.9189280592
  H         1.9532238176        7.9053913072       30.4345870672
  C         3.5581330630        9.3720284349       30.4471696284
  H        -4.5448275826        8.8224394723       26.2289958944
  H        -4.8644419993        8.3856982689       28.0073224457
  C        -5.9639918147       10.0250743845       27.3264437405
  N        -1.7732236639       15.8826492426       30.8760321001
  C        -2.4012956787       15.5506812133       33.0087975820
  C        -2.5946411132       13.3848192742       34.1341528824
  H        -2.3210050382       11.5990958068       32.9150654949
  H         8.0487586942       12.1566437579       20.4451893028
  H         8.2983680155       12.7172952614       18.8626776406
  H         8.3838828378       13.8102281226       20.2967599442
  S         3.9257059580        9.1952270460       14.2939165257
  C         3.5668868619        6.6273717558       13.6706259097
  H         3.6509275309       10.2928118768       29.7702016379
  H         3.3949083067        9.6125300881       31.4786119755
  C         4.9278886655        8.7608107827       30.4807141073
  H        -5.6057681917       10.9598650652       26.9005542048
  H        -6.1521295373       10.2128600112       28.3581439768
  C        -7.2557477651        9.4961665472       26.6608189817
  S        -1.8903137951       17.4230119341       31.4882358569
  N        -2.3918922417       16.9593139648       32.9640153266
  C        -2.7263297085       14.8592923255       34.1838173574
  H        -2.6879788363       12.7280147683       34.9795113922
  C         4.1014774918        8.5186237124       12.7177672379
  N         4.0228102036        7.2013254748       12.5822442119
  O         3.3940418917        5.3877076079       13.9238786126
  H         5.5716093767        9.6305342584       30.8959261328
  H         5.3361549630        8.5132474874       29.5499119239
  C         5.0874887104        7.6594207633       31.5356140244
  H        -7.2331973294        8.4473286363       26.4876628887
  H        -7.9586967475        9.6245724276       27.4022632586
  C        -7.7762545901       10.2001747529       25.4321938145
  C        -3.0988039554       15.5807396867       35.3341214635
  S         4.6752162423        9.3919054604       11.3259232648
  C         4.1418851229        6.3726781337       11.3646712314
  H         5.9763036994        7.8548821490       32.0892751759
  H         4.2540071252        7.6284649223       32.2174629619
  C         5.1390753917        6.3045165996       30.9353785534
  H        -7.2631772445        9.9461512187       24.5492397044
  H        -7.6241966936       11.3156224533       25.5734810229
  C        -9.2186536458        9.7096999102       25.0734641527
  H        -2.8891538107       16.6496777021       35.3528306664
  C        -3.6871717968       15.2593381451       36.5572936781
  H         4.9866932024        6.5924737815       10.7775984260
  H         4.3191950517        5.3062968069       11.6033684590
  C         2.8624192739        6.5358632708       10.5563259416
  H         4.1272504124        6.1120476900       30.4494924628
  H         5.0382932585        5.5116855834       31.6959275452
  C         6.3156065978        6.1702826579       29.8980926025
  H        -9.5301797820       10.0735222554       24.1329043028
  H        -9.3157588862        8.6205566022       24.9844234856
  C       -10.2664472418        9.9657032533       26.1053958459
  S        -4.4367570697       13.7294084063       37.0205659725
  C        -3.7796698888       16.4036954640       37.5091212810
  H         2.5457049027        5.6687106289        9.9160641584
  H         1.9820632883        6.7768452190       11.1733750958
  H         3.0172294318        7.3480794739        9.7847275193
  H         6.1484406215        6.2353198139       28.8610252629
  H         6.6939972017        5.1679037815       29.9063430011
  H         7.1919404029        6.8057498217       30.1603440818
  H       -11.2491484247       10.3291036829       25.8368370380
  H        -9.8727813215       10.6935656259       26.7717118035
  H       -10.5045005347        9.1104279266       26.8304488084
  C        -4.6480335833       14.4830574137       38.5784606363
  N        -4.3398203859       15.8214242266       38.6214818825
  O        -3.3442304980       17.5563246947       37.4421638053
  S        -5.4686909678       13.6991537937       39.9353499249
  C        -4.3983995088       16.6105474726       39.8631495380
  H        -4.7776643479       17.6019267993       39.6469829440
  H        -4.9682290455       16.1308675535       40.6286272166
  C        -3.0487628803       16.6878850752       40.4161937969
  H        -2.9575144212       16.5587234557       41.4645006569
  H        -2.4472554619       15.9504005356       39.8587095108
  H        -2.6864915592       17.6226732430       40.0570216769
  H         7.1170774200       11.4616497312        3.3556882025
  C         7.6459505999       10.4642965988        3.4617947594
  H         6.8902366259        9.7126000124        3.4072876032
  C         8.4205879812       10.4087870341        4.7519043243
  C         8.6249027390       10.2032772940        2.2456949055
  C         7.5192121994       10.6093220533        5.9873772150
  H         8.9730933442        9.4424400426        4.7379532384
  H         9.1541699468       11.2441054935        4.6441798400
  H         7.9018825235       10.4386171055        1.4060277786
  H         9.0414324999        9.1698380527        2.2248856996
  H         9.4327878827       10.9652877030        2.1912179992
  C         7.0485563408        9.2930849228        6.6582605634
  H         8.0462064684       11.2262712128        6.7466240457
  H         6.6114283092       11.1209933418        5.5834434353
  C         6.4781000946        9.6112166079        8.0157386784
  H         7.9394081017        8.6603592392        6.8815747985
  H         6.4399666963        8.6975368497        5.9747137208
  C         5.1848884234       10.3842161499        7.9493940155
  H         7.2241335098       10.0273723692        8.6932499505
  H         6.1968499631        8.6254338515        8.4201549367
  C         3.9990395025        9.7112075923        7.1201624139
  H         4.9028234247       10.6328407157        8.9959405065
  H         5.4216374090       11.3661814275        7.5060683407
  C         2.7271163301       10.4579519280        6.9513095302
  H         3.6884291877        8.7441416722        7.5495825786
  H         4.3744662140        9.4630756204        6.1415632332
  C         3.0300856167       11.8928836319        6.3214622674
  C         2.2658009463       11.1155515733        8.2074107696
  C         1.6188915363        9.7214022563        6.1652287321
  C         2.7518387159       12.9349837045        7.1572256610
  C         3.6214868374       12.3181166364        5.1243625624
  C         2.3216989048       12.4371351209        8.3925611593
  C         1.8702462010       10.4800157843        9.3802450004
  H         2.0086281603        8.8793933455        5.5902749188
  H         1.1480817084        9.1867854705        6.9489749634
  C         0.5944509354       10.5331495651        5.3197493820
  S         3.1138238325       14.4667847868        6.4227723695
  C         3.7816658367       13.6619566234        5.0812360829
  H         3.8487436595       11.5486512349        4.3835663322
  C         2.0556946157       12.9932802625        9.6253441353
  H         1.7575631752        9.4029416752        9.3121222192
  C         1.6079439588       11.0098635356       10.5955012815
  H         1.0411643175       11.2961460957        4.6610448241
  H        -0.0626481193       11.0801651946        5.9745609451
  C        -0.1526648405        9.5754191766        4.3581902695
  C         4.2456451658       14.4029677848        3.8868131011
  C         1.7019734796       12.3220548999       10.7774088937
  H         2.0840660131       14.0818886056        9.5880679172
  C         1.1580081477       10.5612053573       11.8480337385
  H        -0.4994693022        8.6859375526        4.8472838725
  H         0.5987062037        9.2381562233        3.6681019456
  C        -1.3455730640       10.2344405970        3.5309026991
  C         4.1775561140       15.7837559682        3.6467745075
  C         4.6902200043       13.5778572596        2.7750827300
  C         1.3157498220       13.0133968175       12.1083610432
  C         1.0423311180       11.6321852497       12.7523489651
  S         0.7251408720        9.0704668118       12.5572443271
  H        -1.0635083769       11.1784381542        3.0656716921
  H        -2.1521239294       10.5888888171        4.1908477503
  C        -2.0552322813        9.3137629226        2.5860189756
  N         3.7935130257       16.7226464931        4.6253495975
  C         4.4539268235       16.3112436288        2.4202137827
  C         4.9042919243       14.0821756065        1.4881242040
  H         4.9642654288       12.5876790722        3.0234801143
  C        -0.0548647221       13.8010029838       11.8993239742
  C         2.4321044642       13.6908796790       12.9996447317
  C         0.6404050709       11.2102791377       14.0590600868
  C         0.4130520996        9.8741682801       14.0908807653
  H        -2.4919101220        8.5116578589        3.2088863110
  H        -2.8792067451        9.8353528574        2.1537573634
  C        -1.1552774071        8.7965053787        1.4250326867
  S         3.7591434494       18.1677575718        3.8656675871
  N         4.2414300904       17.6825176814        2.3864982071
  C         4.7400769820       15.5708050649        1.2987279197
  H         5.1818961916       13.4104173521        0.7002995091
  H         0.0730164575       14.5931061292       11.1662372978
  H        -0.2474770551       14.1866860985       12.8346453108
  C        -1.1841460072       12.8372468849       11.5401147155
  H         2.6024373091       14.7549478125       12.7985262288
  H         2.1056317152       13.7202991177       14.0267050511
  C         3.7895909370       12.8534840629       12.9385895795
  H         0.3983818084       11.9862650774       14.7849241174
  C        -0.0781820653        9.1118438552       15.3186611889
  H        -1.6403171952        8.0085878175        0.8716406197
  H        -0.2948690387        8.2903400086        1.8007065543
  C        -0.7402460464        9.8421973782        0.4437440383
  C         4.9989668382       16.2217397489        0.0902858598
  H        -1.0042319979       12.1359608313       10.6970898673
  H        -1.4203807434       12.2103166296       12.3591951577
  C        -2.4083663751       13.6208105239       11.0791721027
  H         4.1131801086       12.4416944323       11.9521049110
  H         3.7858453629       11.8722499905       13.5607665951
  C         5.0083144047       13.6091037663       13.4675462742
  C        -0.1360107793        7.7432331808       15.5080446212
  C        -0.3079816909        9.9656294468       16.5138887579
  H        -1.6315580890       10.5194232134        0.3861700701
  H        -0.0227951129       10.5231365770        0.8488319503
  C        -0.4927988883        9.3600343349       -0.9800674283
  H         4.9138860381       17.2739595824        0.1000542154
  C         5.2979012948       15.7883775022       -1.2082853004
  H        -1.9931278889       14.4018733823       10.4079225891
  H        -2.9141466516       14.1796761106       11.8994280083
  C        -3.4897542345       12.7305323035       10.4294335326
  H         5.9206014985       13.0088910068       13.3344252435
  H         5.1905690133       14.5529829336       12.9152243489
  C         5.0537513731       13.8355967595       14.9826431746
  N         0.2662082781        6.7556127873       14.6192440403
  C        -0.4374228298        7.1812720670       16.7177199564
  C        -0.6816512138        9.4201910834       17.7480344563
  H        -0.2587686438       11.0158409022       16.3214327203
  H        -1.1393044857        8.5708464996       -1.2339013648
  H         0.6013759027        9.1704627588       -1.0410171224
  H        -0.5358925990       10.2076782248       -1.6353298271
  S         5.6693105254       14.2003833023       -1.6877396922
  C         5.2322071600       16.7865735710       -2.3519668561
  H        -3.0454296264       12.1168201070        9.5639329041
  H        -3.8204583339       12.0107285622       11.2343039250
  C        -4.7845283080       13.5258455664       10.1337019352
  H         4.8651349463       12.8519231869       15.3558317496
  H         4.2911950390       14.5457482668       15.4821150751
  C         6.4635557012       14.2135071116       15.5854113623
  S        -0.0068398197        5.3041096174       15.2716223154
  N        -0.4041550751        5.8288466805       16.7549791607
  C        -0.8661240976        7.9395442522       17.8011120422
  H        -0.7753918675       10.0733528553       18.6153614900
  C         5.9470868239       14.8583818154       -3.3352899378
  N         5.7531080406       16.1941846125       -3.4175388595
  O         5.0073954813       17.9563428958       -2.2214063723
  H        -5.3263283043       14.1582462163       10.9418071814
  H        -4.5647452886       14.2766243668        9.3303762734
  C        -5.9358082609       12.5954603616        9.6678252290
  H         6.5308761446       13.8621118160       16.6362924599
  H         7.2204487869       13.6357557627       15.1341608862
  C         6.8152095217       15.6921382831       15.6239027044
  C        -1.2027064461        7.2235172166       18.9677969990
  S         6.4533664097       13.9741311797       -4.8173194953
  C         5.8351713661       16.8697699065       -4.6982659167
  H        -5.4975067888       11.9606082252        8.9753817862
  H        -6.3322569556       12.0508716356       10.5071673063
  C        -7.1059984061       13.4483184335        9.1120107439
  H         7.1174276648       15.7829438108       16.6614274681
  H         6.0645896312       16.4696353892       15.5727264748
  C         7.9445103813       16.1010385845       14.7550931650
  H        -0.8971367542        6.1626338485       18.9868010673
  C        -1.7083991428        7.6304568943       20.2017370815
  H         6.5912326977       16.4384094253       -5.3214093753
  H         6.0898686230       17.9508479946       -4.5653639514
  C         4.5238412299       16.8907130975       -5.4729732930
  H        -7.4535980291       13.0379074375        8.1414043605
  H        -6.8590892148       14.5452292240        8.9990845235
  C        -8.2283927024       13.4008838108       10.1578665446
  H         8.5286198299       16.8212344385       15.2769513769
  H         8.5335817355       15.2725100600       14.3899361757
  C         7.3930789963       16.8238606481       13.5412995933
  S        -2.3272331755        9.2277549573       20.5550126337
  C        -1.8568394115        6.6722999650       21.3227933266
  H         3.9783162574       17.7235245135       -5.1602392675
  H         3.8628528836       16.0319600224       -5.2390913559
  H         4.6292987200       16.9725826301       -6.5724167466
  H        -9.1059927937       13.9551695764        9.7422655501
  H        -8.7288350401       12.4035298898       10.2678690086
  H        -7.8590601405       13.6000023258       11.1591409826
  H         8.2301288526       17.4952846751       13.2623026296
  H         7.0741071666       16.1145589952       12.7369914516
  H         6.5578625244       17.4611230068       13.8544098647
  C        -2.6150391683        8.6305949858       22.1316363935
  N        -2.4447117195        7.3032579780       22.3659482989
  O        -1.4303154299        5.5218591778       21.2978054347
  S        -3.2972560556        9.6247330856       23.4312580053
  C        -2.5648236581        6.6531735987       23.7068329572
  H        -2.9439475968        5.6377069017       23.5716619597
  H        -3.2965610730        7.1185395117       24.2956793818
  C        -1.2131735788        6.6079664092       24.3366261319
  H        -0.9547735834        5.6557895705       24.7291472428
  H        -1.1312687219        7.2320306200       25.1951987158
  H        -0.4977438793        6.9051005083       23.6078100074
