352
i =
  H        -3.3634608598       14.8963536832       16.3987840377
  C        -2.7091042014       14.0553845010       16.1993550375
  H        -3.4301145616       13.2657256598       16.2774042246
  C        -1.6511122086       13.8919444249       17.3238495494
  C        -2.1005781438       13.9700546456       14.8167769021
  C        -2.2940635504       14.0476856928       18.6640907846
  H        -1.2093022942       12.9115056419       17.3288606156
  H        -0.8747943513       14.6766198977       17.1567164467
  H        -2.5111808398       14.7521880412       14.1078492428
  H        -1.0598504282       14.0697800388       14.8119953988
  H        -2.2878193367       12.9835325726       14.4640093262
  C        -1.6267017334       13.2559555496       19.7025963163
  H        -3.3655763747       13.8218856346       18.5056144117
  H        -2.2730510955       15.0714018885       18.8859225631
  C        -2.1653048274       13.6002765976       21.0840067904
  H        -1.6915072881       12.1270458047       19.4648905570
  H        -0.5633834584       13.5793733720       19.5297078372
  C        -1.3585403601       12.9912715942       22.2345069002
  H        -3.2040658553       13.1538813685       21.1178985588
  H        -2.4320221528       14.6351274255       21.1577591216
  C        -0.0799527434       13.6749766269       22.3265902091
  H        -2.0633656825       13.1699245455       23.0951181745
  H        -1.1892184969       11.9134879440       22.1187424520
  C         1.0799398373       12.9632942762       23.2036929430
  H         0.3626764722       13.8922491513       21.3583478560
  H        -0.2614775758       14.6866787019       22.7126802309
  C         1.4165278314       11.6320816726       22.5730869525
  C         0.5808042487       12.3186739230       24.4367297627
  C         2.3193317582       13.8935823618       23.3371685363
  C         1.0924170715       10.5678395304       23.3307769706
  C         1.7459534923       11.2312678495       21.2679986506
  C         0.5605186508       10.9505826130       24.5483590244
  C        -0.0279643702       12.9218031304       25.5527370234
  H         2.3950581349       14.2645318709       22.3016500830
  H         1.9633014244       14.7822549170       23.8813513305
  C         3.6065134377       13.2833051380       23.8379011845
  S         1.4214071084        9.0218734329       22.6850578548
  C         1.9074578381        9.8150658144       21.2325574138
  H         1.9947988848       12.0245345926       20.5382540505
  C         0.2003283075       10.3185110692       25.7328784690
  H        -0.1925757781       13.9673808459       25.5046811680
  C        -0.3476802807       12.3139260476       26.7442499107
  H         3.6523966981       12.2471356868       23.5183235906
  H         3.5998083759       13.2667101895       24.9205529543
  C         4.7809651437       14.1992543190       23.5973578433
  C         2.4205889943        9.1113196271       19.9961636334
  C        -0.2866745859       10.9560926408       26.9173066024
  H         0.5083783649        9.2446046362       25.7519966305
  C        -0.7348337404       12.6951586561       27.9986123551
  H         5.6429033515       13.6350242032       24.0128887912
  H         4.9353592114       15.0221356866       24.2561633698
  C         5.1572565934       14.5096133708       22.0952023527
  C         2.5446697729        7.6889697469       19.7171448092
  C         2.7417723849        9.9075198161       18.7844173669
  C        -0.7193781650       10.2940604513       28.2350029028
  C        -0.8928786897       11.6513975097       28.8694629440
  S        -0.9596920414       14.2692889574       28.7379302491
  H         6.1619486125       14.8261374086       22.1015499201
  H         4.5577866550       15.3032369617       21.6778342673
  C         5.2802704805       13.2304286029       21.2449379907
  N         2.3015798177        6.7551527630       20.6725627585
  C         2.8859354078        7.2040465275       18.4640935268
  C         2.9452829753        9.3953656003       17.5301125368
  H         2.8973675696       10.9655742614       18.8496189357
  C         0.4198968617        9.4109537372       28.7803790099
  C        -2.0122251150        9.4975814296       28.0968870035
  C        -1.0742641391       12.1280707448       30.1839445712
  C        -1.1201898717       13.4855451373       30.2451710233
  H         5.8115052484       12.5589479742       21.8493350687
  H         4.2429866217       12.7892691670       21.1486633776
  C         5.7822398306       13.4713997315       19.8051247209
  S         2.3750062152        5.3250064031       19.9359338245
  N         2.8538646159        5.8024977505       18.5348866897
  C         3.0576728130        7.9544641207       17.2821142496
  H         3.1256843677       10.0268655576       16.7184893480
  H         0.7060410169        8.6140895242       28.0372465061
  H         0.0793420329        8.8410850084       29.6120736613
  C         1.6263662251       10.3391818111       29.2997195840
  H        -1.8155744557        8.5282241005       27.5509408055
  H        -2.4043198564        9.2196634033       29.0693863634
  C        -3.1799054719       10.2321332294       27.3306824830
  H        -1.3219987851       11.4144181223       30.8811516933
  C        -1.5031969500       14.1643865230       31.5801914895
  H         5.2618801031       14.2416323404       19.2487021835
  H         5.4960992757       12.5847694822       19.2337219002
  C         7.2951062411       13.5942069023       19.4221131340
  C         3.3637570481        7.3046258632       16.0570855089
  H         2.0329736635       10.9812765194       28.5849371271
  H         1.3389848496       10.9564946427       30.1024232127
  C         2.7440771968        9.4401877572       29.8630153264
  H        -2.8404164386       10.5008925174       26.3395199145
  H        -3.5180058806       11.0608400597       27.9084368669
  C        -4.3380766671        9.2882732401       27.1149037489
  C        -1.5665652701       15.6142212586       31.6450747448
  C        -1.8419234137       13.4381907784       32.8247140539
  H         7.7439211779       14.4616882326       19.9250775386
  H         7.7305804112       12.6930924980       19.8504705062
  C         7.4117895313       13.6774379125       17.9401820791
  H         3.1651752752        6.2864416538       16.0920580346
  C         3.6774319829        7.8556656117       14.8396739002
  H         3.0525374762        8.7995451516       29.1126579983
  H         2.3630843688        8.8914109216       30.7235702055
  C         3.9941162421       10.1941366949       30.2433655862
  H        -4.0652013338        8.4761644442       26.4169398327
  H        -4.4825506363        8.8374725327       28.0672942675
  C        -5.7308903540        9.9159983108       26.7110861260
  N        -1.4652855716       16.4943003494       30.5888848721
  C        -1.8695711225       16.2468623182       32.8387788091
  C        -2.1447155152       14.1052044086       34.0195331853
  H        -1.8649332464       12.3688948022       32.7904000745
  H         7.8352453175       14.5803398092       17.6313296062
  H         7.8857327610       12.8705181507       17.4576281628
  H         6.3973927499       13.7388264130       17.5528897034
  S         4.0603640549        9.4817147781       14.4334121739
  C         3.7317985996        6.8679967656       13.7439369008
  H         3.8389316483       11.2020989479       29.8016098752
  H         4.0201661392       10.3596705016       31.3292133033
  C         5.2987518381        9.5311083914       29.7394006030
  H        -5.8533929796       10.9059056588       27.1386913165
  H        -6.5570803057        9.3666101244       27.1521345219
  C        -6.0307985625        9.9808628742       25.2310633013
  S        -1.6344232082       17.9923464091       31.0999146882
  N        -1.9680475388       17.5947133557       32.6086306005
  C        -2.2038898322       15.5887162852       34.0843937436
  H        -2.2276749481       13.5180540662       34.9501737852
  C         4.1728044728        8.8815964123       12.7423211785
  N         3.9900701649        7.5080140720       12.6070942742
  O         3.6191422300        5.6492279733       13.9037618082
  H         6.1727402816       10.1958693108       29.6511400819
  H         5.0780895859        9.1388422810       28.7555613599
  C         5.9060920089        8.3860121870       30.5799785264
  H        -5.1419588592       10.5131228835       24.8015078608
  H        -6.2307145505        9.0071201179       24.7506166656
  C        -7.2127394293       10.9779051997       24.7903799084
  C        -2.4963697585       16.3958233079       35.2074521830
  S         4.5404593197        9.7237431501       11.2461877206
  C         3.9208821710        6.8526291171       11.3276745408
  H         6.8300252034        8.0334783503       30.1034034330
  H         6.1594871245        8.8664864005       31.5218660633
  C         5.0523466188        7.1617605543       30.7283540506
  H        -6.9185587594       11.5103862653       23.8455887816
  H        -7.2549819530       11.7732494498       25.5926173968
  C        -8.5737030373       10.2858508668       24.5767606028
  H        -2.3979185739       17.4779063330       35.1137324582
  C        -2.9931526454       16.1673942083       36.4408308646
  H         4.8575737391        6.9029445155       10.7654845407
  H         3.8721818446        5.7717307215       11.5408684593
  C         2.6113386861        7.0859476780       10.5433558164
  H         4.9937971807        6.5160216986       29.8045088567
  H         4.0467529317        7.4598825421       31.0164307759
  C         5.5163761827        6.2836791855       31.8508740519
  H        -9.2029645330       11.0869400945       24.0756664879
  H        -8.6264588114        9.5113613576       23.8491609001
  C        -9.1068473355       10.0639420921       25.9873996731
  S        -3.6238198379       14.6764155367       37.0102302406
  C        -3.0686508556       17.3135747532       37.3637782383
  H         2.7027818037        7.8970496245        9.8624148434
  H         2.3027848405        6.0740207078       10.1638077230
  H         1.8731195327        7.3339973124       11.2512888730
  H         5.1678348277        6.5828428408       32.7506919253
  H         6.5930048466        6.2572592943       31.9100439846
  H         5.0808186229        5.2861925390       31.7050627130
  H        -8.7820286927       10.8079269306       26.6907147969
  H        -8.8187185017        9.0809197816       26.4393574427
  H       -10.2076277161        9.9701480068       26.0082234750
  C        -4.0240584735       15.5471479361       38.5058585678
  N        -3.7761770360       16.9056653206       38.4146032012
  O        -2.8979653449       18.4717453803       37.0129141724
  S        -4.9560859891       14.9121060329       39.8058336438
  C        -4.0033976314       17.8737925421       39.5540491343
  H        -4.0709804674       18.9294197649       39.1129281598
  H        -4.9225057725       17.6795151660       40.0381795183
  C        -2.8613987095       17.9281812029       40.6032480797
  H        -1.9419836572       18.3495386519       40.1408421621
  H        -2.9655150677       18.5469057984       41.4998504079
  H        -2.4969094864       16.8613692683       40.8719344096
  H         6.9619581915       12.1192677807        2.6082553525
  C         7.5043284574       11.1384881332        2.6154278330
  H         6.8052806036       10.3412575278        2.7489048473
  C         8.5429412028       11.1151150180        3.7888989462
  C         8.2238583876       10.9640879151        1.2494539552
  C         7.9130553100       11.0957127514        5.1087601299
  H         9.0674253111       10.1474296523        3.7512082471
  H         9.2309392983       11.9313602840        3.5944222322
  H         9.0808039852       11.5949193966        1.1680016838
  H         7.4858459853       11.2290070836        0.5152130050
  H         8.3943533743        9.9589295569        0.9320968103
  C         7.2395853252        9.7224040542        5.4621194167
  H         8.7182514236       11.2085098821        5.7813039599
  H         7.1626802618       11.9285872633        5.2870021876
  C         6.8821728760        9.6472585848        6.9968859092
  H         7.9581923267        8.9152474644        5.1069704143
  H         6.3754713257        9.5600913400        4.8016568684
  C         5.5661172145       10.4675187068        7.3551982119
  H         7.7577709394       10.0727743817        7.4692260478
  H         6.6856595228        8.6419430606        7.4289170614
  C         4.2203514475        9.8897752263        6.8822733511
  H         5.3567877810       10.6389335132        8.3764491463
  H         5.6913155799       11.3862220200        6.9716203626
  C         3.0082114386       10.8384777179        6.7423214339
  H         4.0184201656        9.1835200440        7.6845434043
  H         4.3362704938        9.2750558227        6.0089197729
  C         3.4342191302       12.1303147964        6.0662065241
  C         2.6847854487       11.5314698546        8.0176343960
  C         1.8696832625       10.2640157184        5.9764283522
  C         3.2021889487       13.2175163590        6.9110707604
  C         3.8760990880       12.5338309958        4.7725128790
  C         2.7422182658       12.8887312560        8.1463981265
  C         2.0775257810       10.9433926510        9.1218921865
  H         2.2357754029        9.4242000038        5.3225037654
  H         1.2931215021        9.6673378512        6.6570599479
  C         0.7608559752       11.2348837835        5.4173020314
  S         3.7282238995       14.7305221100        6.2398927492
  C         3.9472918257       13.9287376392        4.6899512377
  H         4.1310733663       11.7984830036        4.0511454907
  C         2.4051239703       13.5911899781        9.2705709109
  H         1.8406757964        9.9096910872        9.0620973418
  C         1.7771083676       11.5871864668       10.3226078042
  H         1.0604568597       12.1898313227        4.9863956991
  H         0.1288156213       11.4520581848        6.3352124561
  C        -0.1874690720       10.6529233581        4.3733395730
  C         4.3862628657       14.6307680450        3.4121467402
  C         1.9798824355       12.9412834316       10.4738997097
  H         2.6099992679       14.6562591371        9.2731652270
  C         1.2882247437       11.2416982447       11.5606161852
  H        -0.8746148135       11.4638961107        4.0949267445
  H        -0.8542235998        9.8135827421        4.6437367369
  C         0.5367074257       10.1827627733        3.0774906343
  C         4.4410029499       16.0441767986        3.2554066633
  C         4.8418324619       13.8931404770        2.2057110428
  C         1.6845795433       13.5888371361       11.8326074868
  C         1.2078120648       12.3044277700       12.4410993822
  S         0.9170573617        9.7134414580       12.2415834665
  H         0.4780930408        9.1157531126        2.9846105946
  H         1.5737497294       10.4136152477        3.3006721926
  C         0.0606303777       10.9536352474        1.8069519835
  N         4.2108451459       16.9576671132        4.3082443311
  C         4.6886371058       16.7121775981        2.0587134400
  C         5.0530754574       14.5878896993        1.0168649769
  H         5.0073836919       12.8326265415        2.2113867905
  C         0.3467067673       14.4935888822       11.6058591771
  C         2.7961226775       14.3255431381       12.4971432555
  C         0.7174787495       11.8716349753       13.7360173066
  C         0.5742386687       10.4666106538       13.7784123843
  H        -1.0062103602       11.0637687858        1.7832251363
  H         0.4530933130       11.9961535812        1.8154156526
  C         0.4824149737       10.1439327941        0.5875069681
  S         4.4582065210       18.4612012821        3.8113845638
  N         4.6239289117       18.0739702790        2.2229200184
  C         4.9400218482       16.0284625495        0.8498701459
  H         5.3945406947       13.9888505491        0.1352856598
  H         0.6169190948       15.4065023923       11.0927155939
  H         0.0111761206       14.7852609098       12.6306013967
  C        -0.8509687381       13.7664278122       10.8665415692
  H         3.2674497824       15.0125741765       11.7772629278
  H         2.3686412283       14.9631494384       13.2838789000
  C         3.8590804454       13.5136845194       13.2611780704
  H         0.6419168155       12.6026228709       14.5919497712
  C         0.2708639922        9.6875848023       15.0046995948
  H         0.0917435995        9.1771766488        0.6803489502
  H         1.5492349415       10.0344320941        0.5021833837
  C         0.0031417316       10.7369904445       -0.6796308492
  C         5.2020768205       16.7763754126       -0.3477392545
  H        -0.4728551448       13.5084219431        9.8589138828
  H        -1.1969724285       12.9014335587       11.4856452806
  C        -2.1527604351       14.5651576507       10.6947171501
  H         4.4195494444       12.8526120053       12.5680206553
  H         3.4063149716       12.8277401990       13.9891680399
  C         4.8879757726       14.4555383788       13.9552126132
  C         0.2867078463        8.2448878941       15.1334152123
  C         0.0239273350       10.4704156490       16.2038500641
  H         0.0925148793       11.7560946377       -0.8252174852
  H         0.6623200817       10.3060758713       -1.4888799867
  C        -1.3259110116       10.1760520107       -1.1941841998
  H         5.1844823588       17.8316999044       -0.2191788063
  C         5.5127937901       16.3353032987       -1.6454174836
  H        -2.0684946787       15.3015627731        9.8579798166
  H        -2.2472228728       15.0289577150       11.7033375196
  C        -3.3516484596       13.6299340912       10.4567383686
  H         4.3606749829       15.4061196713       13.8706312258
  H         4.9349662878       14.1990064883       15.0269651978
  C         6.2710885388       14.5086843501       13.2497577488
  N         0.5022763419        7.3791817063       14.0918075261
  C         0.0699558590        7.5993671140       16.3022605070
  C        -0.1451846782        9.8122291465       17.4660521987
  H        -0.0173000977       11.5692836895       16.1871291804
  H        -1.6423629794       10.5336701606       -2.1822615504
  H        -2.1206312375       10.5562147149       -0.5438504915
  H        -1.1567243104        9.1132751692       -1.2520412345
  S         5.6691739574       14.7636520372       -2.1407633099
  C         5.6656670367       17.4551164397       -2.6457616403
  H        -3.0814933059       12.7250134714        9.8440106160
  H        -3.6575328836       13.1389232556       11.3706601238
  C        -4.4317466057       14.3507325584        9.7475475335
  H         6.1906938762       14.9707746436       12.3154448667
  H         6.5574616618       13.4817336965       13.0100635543
  C         7.2924934669       15.2978970238       14.1202151188
  S         0.4595480482        5.8075967989       14.6917613598
  N         0.0800727680        6.1496621658       16.2449448280
  C        -0.1643000575        8.3343266417       17.5238729539
  H        -0.1717271688       10.4472847677       18.3513899413
  C         5.8391663254       15.5021276424       -3.7541552468
  N         5.8619736600       16.8637611522       -3.8243967678
  O         5.5957307202       18.6245434891       -2.4223741484
  H        -4.7560847670       15.1114246720       10.4982655249
  H        -3.8410445655       14.8993875227        8.9768660907
  C        -5.4299581541       13.4605134143        9.0460438907
  H         6.9301456819       15.3195448206       15.1174377615
  H         8.1908612228       14.8354959397       14.1140701018
  C         7.5385817745       16.6383673760       13.5306035817
  C        -0.3814536540        7.5389629880       18.6943242347
  S         6.2201308146       14.5444457190       -5.2189466143
  C         6.1693014637       17.7352593763       -4.9541666428
  H        -5.0960214748       13.2450476111        8.0330513356
  H        -5.5139151048       12.4762734797        9.5640808408
  C        -6.7658735831       14.2476990981        8.9202437636
  H         7.2539610825       16.6910160527       12.4442365024
  H         8.5639252173       16.6930550952       13.4248624676
  C         6.9950537933       17.8463635439       14.3715055259
  H        -0.1552885267        6.5060088332       18.5572762839
  C        -1.0065395732        7.7890804382       19.8851022093
  H         6.9727007740       17.2037783459       -5.5448459558
  H         6.5253480698       18.7258703263       -4.6945965559
  C         4.9919271848       17.8521950618       -5.8762499696
  H        -7.3189648036       13.9593607000        8.0471021652
  H        -6.5232568287       15.3016363502        8.8647460068
  C        -7.6475576609       14.1449001340       10.1516128388
  H         6.7975563697       18.6259472039       13.6209463136
  H         5.9614444736       17.6904180034       14.8275694132
  C         8.0886346080       18.5202223834       15.2345784336
  S        -1.5640862971        9.4031118638       20.3972533989
  C        -1.2013449178        6.7156202136       20.9266184823
  H         4.0549964547       17.3755695943       -5.5190298150
  H         5.2248027468       17.3003930993       -6.8394885073
  H         4.6942074671       18.8670054236       -6.1936355742
  H        -7.1254395861       13.5230610891       10.9421102815
  H        -7.9741829735       15.1618528689       10.5750209997
  H        -8.5386155184       13.5467909498       10.0138373636
  H         8.7626783099       17.7836357601       15.7536169901
  H         8.7177950645       19.0165564531       14.5081685360
  H         7.6383477396       19.2858400584       15.8871680151
  C        -2.2158211854        8.5850904116       21.8120977811
  N        -1.8818993894        7.2888982814       21.9520937283
  O        -0.9408005261        5.5085656359       20.8477709090
  S        -2.8397589615        9.5588390254       23.1499868622
  C        -2.1292915150        6.4679418559       23.1123844792
  H        -2.2053584825        5.4124064763       22.8820845670
  H        -3.0085414138        6.8223847986       23.5901905938
  C        -0.8786121389        6.5651693213       24.0611006819
  H        -0.7116205479        7.5992523383       24.3286142867
  H         0.0420559869        6.2132391983       23.5839846368
  H        -1.0793270315        6.0502825423       24.9838932829
