352
i =
  H        -1.1636864247       13.8797759039       15.2033319658
  C        -2.0662501065       13.6589500211       15.7894833518
  H        -2.6765833635       14.4938431143       15.9226883891
  C        -1.6931006131       12.9925104288       17.1650375966
  C        -2.9969094659       12.6413839449       15.0108158892
  C        -2.4326266359       13.2574625231       18.3609301482
  H        -1.7077001608       11.8635501106       17.1396713081
  H        -0.5974169091       13.1366789071       17.3260616134
  H        -2.3656214470       11.7687693085       14.7140493777
  H        -3.8181540432       12.1875728523       15.5444994899
  H        -3.3281430960       13.0435346177       14.0425146343
  C        -1.7492312206       12.5111667949       19.5063742242
  H        -3.4782502708       12.8852358948       18.1929671586
  H        -2.5046378434       14.3828034516       18.5573113603
  C        -2.2321788960       12.8820532460       20.9417067355
  H        -1.9689889064       11.4758465748       19.5036673711
  H        -0.6855307694       12.6817302651       19.3873652272
  C        -1.3088319188       12.3180483970       22.0841426323
  H        -3.2930221361       12.5294904712       21.0013340677
  H        -2.2829228642       13.9467787503       21.0732811950
  C        -0.1658355258       13.3014169943       22.3128814143
  H        -1.9017595072       12.0273550711       22.9569317608
  H        -0.8357287270       11.4015320811       21.6217746718
  C         1.0840533504       12.8131042956       23.0092649481
  H         0.1395038238       13.8145723640       21.4028123841
  H        -0.5654299204       13.9747240414       23.0716703557
  C         1.5418039350       11.4903821683       22.3698015976
  C         0.7745840512       12.0648068791       24.2604321816
  C         2.2037482115       13.7666539740       23.2466583709
  C         1.3209322989       10.3725437564       23.1369052954
  C         2.0690153243       11.1916547735       21.1160718908
  C         0.9027321160       10.7553187286       24.3635225954
  C         0.3506226157       12.7214724159       25.4249348974
  H         2.3170466989       14.1905109315       22.2345970512
  H         1.9240350916       14.6464279944       23.9068609887
  C         3.5430211216       13.1611088119       23.6686689426
  S         1.6760935284        8.8700868112       22.3281349814
  C         2.1991604180        9.8360359901       20.9918016357
  H         2.1121019595       12.0310654524       20.4035783555
  C         0.5808756372       10.1719371464       25.5869757314
  H         0.2038211524       13.7479124405       25.3057637618
  C         0.0054429917       12.1930884526       26.6291595351
  H         4.0212369327       12.5875386136       22.8880618692
  H         3.3707796121       12.4987028534       24.5523038364
  C         4.4797003255       14.2505079388       24.1560978060
  C         2.6295568498        9.2837094352       19.6594126138
  C         0.0704358965       10.8457698150       26.7083923327
  H         0.5671268709        9.0175832104       25.5458991707
  C        -0.4010117052       12.6819163162       27.8219929957
  H         5.1861773779       13.8550147577       24.8461736348
  H         3.9047500110       15.0468300858       24.5569169695
  C         5.2327570178       14.9780939119       23.0229249809
  C         2.5741945957        7.8698171698       19.3009862736
  C         3.0595076790       10.2043635061       18.5630501505
  C        -0.3180287859       10.2000738621       28.0088821925
  C        -0.6347904192       11.6151215637       28.6732353449
  S        -0.7603001389       14.2075611465       28.5653539555
  H         5.6299455939       15.8334280258       23.4749648575
  H         4.5508919668       15.2808806258       22.2716666504
  C         6.3389340790       14.1595630905       22.3973187980
  N         2.0918202661        6.7951553874       20.1155519526
  C         2.9592303076        7.4170940712       18.0524683618
  C         3.4043625345        9.7149409573       17.3216342133
  H         2.9718437160       11.2891734966       18.6889871664
  C         0.7385638402        9.4141564345       28.7040542854
  C        -1.6764611206        9.3545496964       27.8748070206
  C        -1.0970199087       12.0494459047       29.9408675810
  C        -1.0598221698       13.4055364729       30.0668468738
  H         7.3018265386       14.6296034284       22.4821307688
  H         6.4584416520       13.3053102517       22.9837538195
  C         5.9868676063       13.7374075539       20.9940252537
  S         2.2265490195        5.3874380391       19.3220826915
  N         2.8143800273        6.0375167555       17.9251660547
  C         3.4284401918        8.2587754513       17.0369560586
  H         3.8279596424       10.4153967167       16.5921147766
  H         1.0544926319        8.6214573349       28.0490270687
  H         0.3430300085        9.0067639432       29.5962839977
  C         1.9785973802       10.2703347826       28.8879441867
  H        -1.6380195714        8.6473457358       27.0410451954
  H        -1.9173994810        8.9395591383       28.7889650633
  C        -2.8744036204       10.1734530861       27.5234015680
  H        -1.2821653020       11.2752605554       30.6314610843
  C        -1.2943618526       14.1784455815       31.3623025287
  H         5.4002901860       14.4984987554       20.5451109148
  H         5.5434173813       12.7133794201       20.9515685682
  C         7.2239558106       13.4509113565       20.0972783019
  C         3.5905558686        7.6742929677       15.7470531220
  H         2.2070027016       10.7476561082       27.9630157255
  H         1.6679938576       10.9643363110       29.6877811080
  C         3.2240058299        9.4189093818       29.3029751111
  H        -2.5493206747       10.9393254395       26.8546338260
  H        -3.1135780278       10.8100000259       28.4051003610
  C        -4.1156489854        9.3974174707       27.0330909691
  C        -1.3700836277       15.6191185671       31.4681292659
  C        -1.3897359303       13.4182367976       32.6028398255
  H         8.1456007612       13.7948508636       20.5117731102
  H         7.3382703515       12.3165639153       20.0728439163
  C         7.0330546337       14.0512987915       18.7133603279
  H         3.5604659808        6.6642447926       15.7794580582
  C         3.8832914936        8.1186005711       14.4914293885
  H         3.4188386311        8.5554812607       28.6718049222
  H         3.0421112404        8.8592939786       30.2199763379
  C         4.4971234598       10.3046031526       29.4056671962
  H        -3.9264126564        9.2130623777       25.9960061275
  H        -4.3212133371        8.5758414312       27.6433726794
  C        -5.3758820980       10.2748380319       26.9759591589
  N        -1.2411403091       16.5001913340       30.3915485568
  C        -1.6571847356       16.2527713343       32.6408858300
  C        -1.6781578673       14.0365538078       33.7836083071
  H        -1.3559875647       12.3336004653       32.6146625127
  H         7.2202101605       15.0582601184       18.7909634798
  H         7.6521771320       13.6854391060       17.8655700406
  H         6.0038423824       14.0632015526       18.4010939673
  S         4.1467772540        9.7280493128       13.9261510250
  C         3.9837435634        7.0633480834       13.4509080160
  H         4.5594069014       10.8890506798       28.5511763002
  H         4.4347192179       11.0962281767       30.1088212842
  C         5.7975223358        9.5554038888       29.5064255837
  H        -5.3061017062       11.0925458315       26.2594835064
  H        -5.7005396079       10.6779118361       27.9785680257
  C        -6.6041784572        9.5009029436       26.5055733727
  S        -1.4368030681       18.0319934629       31.0055149487
  N        -1.8445096386       17.6307996284       32.4944487176
  C        -1.8578515189       15.5121411539       33.8278638443
  H        -1.7045580887       13.4534798496       34.6493626554
  C         4.2552630886        8.9846655030       12.3030608585
  N         4.3519499242        7.6259792041       12.3132816932
  O         3.9288021782        5.8391742512       13.6393807689
  H         6.6447416609       10.2622563029       29.2615950313
  H         5.8113019052        8.7720716009       28.7379205584
  C         6.0405453984        8.9657225489       30.8394522557
  H        -6.3533589929        8.7835982698       25.7062652754
  H        -7.0974989931        9.0142943416       27.3069695569
  C        -7.5544503563       10.5209059152       25.8849139605
  C        -2.1808220595       16.1631522537       35.0648068413
  S         4.8202238586        9.8724115089       10.9085424141
  C         4.4790243269        6.7914352287       11.1178347248
  H         6.7278996187        9.6640597862       31.2825520525
  H         5.0553956683        8.8616392048       31.3151138066
  C         6.6359767556        7.5401900720       30.8269618507
  H        -7.0734563949       10.7987867552       24.9690721156
  H        -7.6447369952       11.3554166698       26.4964707715
  C        -8.8384519614        9.8601182928       25.5086302930
  H        -1.7998390282       17.1760097753       35.0286385866
  C        -2.7876051051       15.7364204267       36.1927263387
  H         5.2342288337        7.2545946116       10.5263013370
  H         4.8184357795        5.7939015215       11.4129436435
  C         3.1086122427        6.8660439565       10.4957718669
  H         7.5609155542        7.4265333185       30.2121156218
  H         5.9055379566        6.8200414148       30.3894775359
  C         6.9006520317        7.1598947544       32.2172658471
  H        -9.2300768412       10.2915167819       24.5241653552
  H        -8.6432185610        8.8571069553       25.4509921803
  C        -9.9087911003       10.0530281626       26.5584918553
  S        -3.2302411768       14.1252307940       36.5568434893
  C        -2.8963123962       16.7527068801       37.3120178639
  H         3.0656161095        7.6802953641        9.8319608876
  H         3.0730082019        6.0238444009        9.7541833275
  H         2.2620899459        6.9062852907       11.1857302329
  H         7.6701855512        6.3567243484       32.1642049321
  H         6.0156601932        6.7079555282       32.6352664855
  H         7.2209311182        7.8737092331       32.9129132273
  H       -10.7766037142        9.4629849792       26.5448946756
  H       -10.2355870719       11.1077727904       26.5060350855
  H        -9.3995299515       10.0224661904       27.5283050538
  C        -3.8586287543       14.7935021911       38.0426164806
  N        -3.5443551223       16.1105374564       38.3176892818
  O        -2.6989311417       17.8850953218       37.2098247621
  S        -4.4231410620       13.9488724710       39.4438656481
  C        -3.7190838940       16.7394986711       39.5919900507
  H        -3.7864660579       17.7723446286       39.3414571619
  H        -4.7129853811       16.5720303180       40.0913222731
  C        -2.5091456457       16.5569467052       40.4652537745
  H        -2.3885131148       17.3993095393       41.1943482160
  H        -2.6844077029       15.5577942920       40.9781007490
  H        -1.5650703300       16.4707575984       39.9214022278
  H         7.1316581664       11.0288566898        2.9908182949
  C         7.7892165192       10.1670592806        2.8943650984
  H         7.2544307000        9.2238019587        3.0677852818
  C         8.8687917655       10.3308405881        3.9563568115
  C         8.4418623116       10.1548529491        1.5109523725
  C         8.3058187022       10.5059305552        5.3528096170
  H         9.5766976865        9.4953084119        3.9433915672
  H         9.5325327125       11.1651632047        3.6167819705
  H         9.4925291143       10.3706822672        1.4915440024
  H         7.8540917793       10.9532123488        0.9488938000
  H         8.2190163919        9.1615916427        1.1707418037
  C         7.4234164962        9.3972478580        5.9548065347
  H         9.1764803647       10.3753390969        5.9796409333
  H         7.9779070980       11.5477837448        5.4879875911
  C         6.8797972334        9.7522357535        7.3706384576
  H         7.9344898016        8.4493066597        6.0790637614
  H         6.6075847848        9.1625630441        5.3861317340
  C         5.5598622783       10.6101987012        7.2668638402
  H         7.5946062827       10.2964386296        7.9972742790
  H         6.7313992289        8.8014057837        7.8959906524
  C         4.3093209427        9.7648628310        6.9569109766
  H         5.2394649920       11.1302567716        8.1621101330
  H         5.7354744512       11.3520979034        6.5401292738
  C         2.9525733104       10.5619896522        6.6776065091
  H         4.1841980590        8.9241247719        7.6448331036
  H         4.5335749159        9.4060538463        5.9598128391
  C         3.2310473128       11.9180656136        6.0480938562
  C         2.4542618793       11.2666028851        7.9322369759
  C         1.8022993799        9.7307462649        6.0620712188
  C         3.0055397698       13.0186533047        6.8673893424
  C         3.7134098568       12.3569518802        4.8250234828
  C         2.4997368758       12.6321889751        8.1240642955
  C         2.0380677270       10.5685634350        9.1015102439
  H         2.0412097745        9.1023291608        5.2100033021
  H         1.5779742048        8.9869632580        6.7697706123
  C         0.5913193992       10.5591457642        5.6225919802
  S         3.3150998897       14.5035696839        6.1598870479
  C         3.9085898256       13.7012685354        4.7785424050
  H         3.9834068861       11.6686144849        4.0523786072
  C         2.1771460157       13.2174656533        9.3234068163
  H         2.1534670331        9.4980376910        8.9756728511
  C         1.6678619023       11.1417544388       10.3083484445
  H         0.8159951245       11.4693837193        5.0384828584
  H         0.0368231234       10.7958932291        6.4533472329
  C        -0.3657591235        9.7993379907        4.6139409386
  C         4.3337915943       14.3168106224        3.4916598888
  C         1.7281359997       12.5064613058       10.4232041655
  H         2.4753233786       14.1852320666        9.5147576095
  C         1.2908371954       10.6960933555       11.5609303205
  H        -1.2061860886       10.3617507102        4.3433609053
  H        -0.7675510515        8.9816167749        5.2556639564
  C         0.2714477990        9.4291743097        3.2330880319
  C         4.3228365640       15.7086249291        3.1969496622
  C         4.7519096923       13.4974740771        2.2565194979
  C         1.3940441471       13.1012622223       11.7992430578
  C         1.1058730534       11.7159046572       12.4345550771
  S         1.1360776445        9.1230905907       12.3128267052
  H         0.7061015285        8.4105169152        3.4227907638
  H         1.0029169547       10.2098961427        2.8790624574
  C        -0.8546476776        9.2353180529        2.1946644762
  N         4.0806586274       16.6905972384        4.1167166549
  C         4.6141701236       16.2302614335        1.9551023981
  C         5.1590812355       13.9877529042        1.0063126653
  H         4.8722682340       12.4434045445        2.4127246555
  C         0.1592174909       13.9357401184       11.7125639651
  C         2.7013206948       13.8039328709       12.3099394605
  C         0.7160393217       11.1842293088       13.6922228838
  C         0.7129362156        9.8532987479       13.7724036253
  H        -1.5043335764        8.4981359661        2.6680671414
  H        -1.3076849298       10.1497324559        2.1309592585
  C        -0.4357781050        8.7351231190        0.7718781998
  S         4.2392056573       18.1354230429        3.3608054377
  N         4.4350814678       17.6510635029        1.8662274222
  C         4.9714248272       15.4814845301        0.7770825333
  H         5.4361707929       13.3348296290        0.2142696675
  H         0.2224303677       14.8711419967       11.1449302306
  H         0.1881850950       14.2786443463       12.7560385217
  C        -1.0665786836       13.1233641120       11.2486411355
  H         3.5482505460       13.2346600234       11.9938581290
  H         2.7690288614       14.8093259689       11.9958749625
  C         2.8317613835       14.1224688123       13.7745137080
  H         0.3379810250       11.8593981345       14.3701907809
  C         0.2407093833        9.0173895636       14.9323599646
  H        -1.3362041601        8.4450102926        0.2708319175
  H         0.1947356838        7.8250578960        0.8680831435
  C         0.1158167858        9.7492342019       -0.2042315587
  C         5.0255217472       16.1881767690       -0.4558113944
  H        -0.7304600524       12.6076378237       10.3319145112
  H        -1.3506976223       12.3800197728       11.9658094847
  C        -2.2820160237       13.9620017083       10.9748370283
  H         2.5585817360       13.1645802660       14.2918556449
  H         1.9658735339       14.7949163514       14.0266509672
  C         4.1984300485       14.7639973890       14.1544947873
  C         0.2195088315        7.5558845638       15.0289915585
  C        -0.0406871530        9.7301139159       16.2077616692
  H         0.9549567541       10.3227036512        0.1730770416
  H         0.5888870830        9.0907269709       -0.9716031088
  C        -0.9563695274       10.6841792965       -0.7140170941
  H         4.5997405529       17.1718314655       -0.5426107352
  C         5.4070640226       15.7700652804       -1.7131439512
  H        -1.9113111986       14.8111832211       10.4397931059
  H        -2.7992985087       14.3241406137       11.8692031841
  C        -3.3765934641       13.1143686300       10.2047532213
  H         4.7180636229       15.0695869721       13.2908100030
  H         4.0499729374       15.6852848077       14.7315990939
  C         5.1356442883       13.8983903561       14.9530563273
  N         0.6798225312        6.6921539622       13.9809764386
  C        -0.1635311350        6.8510188944       16.2004878155
  C        -0.3570758979        8.9904886026       17.3338778282
  H         0.1054094694       10.7968762014       16.2675472321
  H        -1.6254702800       11.0976505797        0.0104736022
  H        -1.6321690415       10.2353404462       -1.5082973724
  H        -0.5407255442       11.6004589245       -1.1303442758
  S         5.7717020366       14.1381750557       -2.2119374145
  C         5.3189949479       16.7547126094       -2.7917411027
  H        -2.9838582894       12.5172330532        9.3895161956
  H        -3.9704706633       12.4815726347       10.8387856814
  C        -4.3255298398       14.1033518040        9.6352673227
  H         4.8327468781       12.8690119759       14.7113581579
  H         4.8109819392       13.9291509703       15.9785455645
  C         6.5957715834       14.3454699566       14.7226455665
  S         0.2861087413        5.1445126839       14.5107724143
  N        -0.1092973000        5.4674495438       16.0480125187
  C        -0.4789550706        7.5259912643       17.4038633210
  H        -0.5539027839        9.5411961183       18.2270454508
  C         6.1091833423       14.8849933412       -3.7700775422
  N         5.7320216487       16.2165867689       -3.9565676670
  O         4.8702337393       17.9164887219       -2.6353884764
  H        -4.6851782418       14.7184568023       10.4604891254
  H        -3.7700248139       14.8836752530        9.0186203429
  C        -5.4461963279       13.3470343528        8.9016639672
  H         7.1526831253       13.7432208260       15.3853546866
  H         6.8994686613       14.1292770723       13.6908387766
  C         6.7956318645       15.8351978867       15.1292637107
  C        -0.7564784459        6.7487180194       18.5283839531
  S         6.6905839178       14.0684420301       -5.2116089409
  C         5.6391811483       16.9268494209       -5.2200997867
  H        -5.0859484843       13.0187209877        7.9475263342
  H        -5.7471259552       12.5614909856        9.5168990240
  C        -6.6582303534       14.1901251933        8.5277237155
  H         6.8192070014       15.7760507657       16.1556700711
  H         6.0462732930       16.5272937972       14.8602298020
  C         8.0120628853       16.4581900762       14.4958456179
  H        -0.5936989490        5.6909339384       18.4216906007
  C        -1.2196329754        7.0609186478       19.7584105482
  H         6.4119972581       16.7373466084       -5.8617324974
  H         5.6315571171       17.9619691530       -5.0378750466
  C         4.3235559098       16.5384421374       -5.9740572788
  H        -7.1262517194       13.7598034239        7.7080446257
  H        -6.2394810111       15.0658257253        8.1367338175
  C        -7.5430371980       14.3694020864        9.7861852843
  H         8.6574647262       16.9891090277       15.2467116939
  H         8.7008836415       15.6368001918       14.1570798587
  C         7.5378493192       17.4059071314       13.3668289810
  S        -1.6274985147        8.6171969113       20.3051652587
  C        -1.2436285326        5.9616016288       20.7709517560
  H         3.5473758249       17.2897067057       -5.8711305480
  H         3.8901378533       15.5530243752       -5.6515849199
  H         4.5567269427       16.4137465924       -7.0428249014
  H        -8.5544200928       14.7076071231        9.5975113404
  H        -7.7652599007       13.4208089685       10.2532754245
  H        -7.0879180186       14.9627823809       10.5536339637
  H         7.2355746943       18.3767869668       13.7374405189
  H         8.3713467963       17.6913496409       12.7131334264
  H         6.7498819569       16.9026333802       12.7442872462
  C        -1.7537168699        7.8782624630       21.8970024034
  N        -1.6674293437        6.5541343817       21.9393266909
  O        -1.0239792321        4.7565899014       20.5250673386
  S        -2.4693265809        8.7298527620       23.3143034379
  C        -1.8480756188        5.7933201178       23.1896163028
  H        -2.1366718124        4.7828723336       22.8157938472
  H        -2.6517773338        6.1894260962       23.8624483928
  C        -0.5326120788        5.6202293536       23.9363110356
  H        -0.5890121021        4.8188175942       24.7015663380
  H        -0.2465817834        6.5829877540       24.3438656674
  H         0.2223470732        5.2328015235       23.2530388558
