352
i =
  H        -1.5860446933       15.6115289054       15.6810758227
  C        -2.3713726585       15.2283395838       16.2910716530
  H        -2.9106578245       16.0515686323       16.6564485121
  C        -1.6409603476       14.6010451739       17.4843417122
  C        -3.1776521433       14.2753242693       15.5211366909
  C        -2.4711607654       14.1546637646       18.6643995753
  H        -0.8523848792       13.9452534206       17.2170145760
  H        -1.1495989121       15.4569559253       17.9276494271
  H        -3.5274293451       14.6648045365       14.5943792695
  H        -2.5072270544       13.4401857674       15.3908358503
  H        -3.9892038611       13.9790924089       16.2134339925
  C        -1.5618368461       13.5360402607       19.7127656257
  H        -3.1560001399       13.4176666890       18.3319361150
  H        -3.0336892121       14.9382676142       19.0713805184
  C        -2.1270913748       13.7930582170       21.1463838572
  H        -1.3874331155       12.4989154471       19.4751781853
  H        -0.6703201824       14.0865787216       19.6583561686
  C        -1.1675992158       12.9802446413       22.1072495962
  H        -3.1902440065       13.4208228924       21.2216439771
  H        -2.1763846508       14.7812226427       21.4248476261
  C        -0.0482315041       13.9205948148       22.5181122517
  H        -1.8034473279       12.7441034968       22.8842519370
  H        -0.8547789830       11.9899485238       21.8594704065
  C         1.1150458356       13.2288069785       23.2132311958
  H         0.3510105730       14.4067457426       21.6667679260
  H        -0.4058598656       14.6820443217       23.0555899219
  C         1.5488632445       11.8935752796       22.4964678796
  C         0.6483559715       12.4942093178       24.4689818634
  C         2.2676878591       14.2533327752       23.4475234981
  C         1.2828955320       10.8469127370       23.3110399540
  C         2.0535601752       11.5692874616       21.2555308068
  C         0.6507514385       11.1229976043       24.4893124193
  C         0.1088588539       13.1314921834       25.6338696399
  H         2.3748205044       14.9158976336       22.6020735680
  H         1.9882990466       14.8604606410       24.3393116636
  C         3.5826873035       13.6217714759       23.9519033965
  S         1.5657332407        9.2880755752       22.5839781419
  C         2.1239334266       10.1419357732       21.2061113938
  H         2.2407802525       12.3408532127       20.5958351276
  C         0.1675521780       10.5009478617       25.6521532745
  H        -0.1217307856       14.1903538037       25.4765542344
  C        -0.2453209326       12.4736250004       26.7605236723
  H         3.8852957358       12.7073709496       23.4351364196
  H         3.4879849338       13.2594888337       24.9281168187
  C         4.6682833114       14.6652587654       24.0294184737
  C         2.5223188417        9.4555947014       19.9395383841
  C        -0.2468610649       11.1094807511       26.8510306855
  H         0.3333681812        9.4232773373       25.7126679208
  C        -0.6479974972       12.8161693496       28.0230569859
  H         5.3954294334       14.2860446322       24.7188251193
  H         4.1055592222       15.6154733251       24.3784398825
  C         5.3370167806       15.0274462606       22.6748102126
  C         2.3728970880        8.0680175256       19.6653867242
  C         2.7491823317       10.2785930245       18.7347762458
  C        -0.6491187642       10.3571979268       28.1239692810
  C        -0.7656324296       11.7467411927       28.8320823507
  S        -1.0738283529       14.3234346927       28.7744270166
  H         6.1629760554       15.8500558830       22.6355049950
  H         4.5670455681       15.4598314118       22.0438163911
  C         6.1032190534       13.9186158507       21.9156880586
  N         2.2510273772        7.0754036655       20.6485638904
  C         2.6059473999        7.5534579277       18.4169462665
  C         3.0159241711        9.6890203153       17.4628426831
  H         2.9852138076       11.3618702678       18.7213391415
  C         0.5432313085        9.4664705234       28.6269406557
  C        -2.0362309201        9.6425169290       28.0678676640
  C        -1.3357920148       12.0661968040       30.0583598692
  C        -1.4757975098       13.4493396987       30.1754080356
  H         7.2410132118       14.1175909068       22.0099867186
  H         5.7698175671       12.8953770039       22.3251273170
  C         5.8060745072       13.9167523848       20.4373998312
  S         1.9671293374        5.7162721887       19.8206831967
  N         2.4319921553        6.1826282481       18.3522250634
  C         2.9857104516        8.2462019257       17.2261459868
  H         3.3233508577       10.3853646677       16.6374324598
  H         1.0829657026        8.8815447846       27.8517885007
  H         0.1031977734        8.6640883220       29.1398553808
  C         1.5708818927       10.2739538687       29.4098534846
  H        -1.9714126335        8.8424779771       27.2703700601
  H        -2.1680097716        9.1221285804       29.0590468587
  C        -3.2566263275       10.5277919358       27.6710266190
  H        -1.5497449697       11.3587646480       30.7624291948
  C        -1.8594395547       14.1833728025       31.4805204789
  H         5.3525602433       14.8616114068       20.1508901923
  H         5.0732964417       13.2010818003       20.2004111159
  C         7.1468590985       13.6701582104       19.7169445108
  C         3.1455484522        7.5395214209       16.0062195429
  H         1.9891979301       11.0703336739       28.7686601345
  H         1.3082473255       10.8084945003       30.2968769196
  C         2.7334350234        9.3843942438       29.9224510224
  H        -3.0297605800       11.1107936607       26.7874481145
  H        -3.4062830838       11.1875915024       28.5179687782
  C        -4.4264558493        9.6647991144       27.3346346808
  C        -1.9595892553       15.5550815451       31.6104671912
  C        -2.0342181706       13.3459141549       32.7582575153
  H         7.9743213365       14.4026337067       20.0250255744
  H         7.3755680429       12.6230742861       19.9522218889
  C         7.0790368106       13.7871546048       18.2111378287
  H         2.8958890717        6.4994926483       16.0084217743
  C         3.5842179075        7.9937273035       14.7773465651
  H         3.2691713051        8.8073196653       29.1618725937
  H         2.3085041459        8.5546713836       30.5827281851
  C         3.6209320311       10.0598028167       30.9442334752
  H        -4.1981200332        9.1664589955       26.3815240555
  H        -4.5212440117        8.9136090301       28.1288940689
  C        -5.7168072921       10.4700402866       27.2411999383
  N        -1.8165658371       16.5145566673       30.6637114923
  C        -2.3324970374       16.1529357187       32.8212693275
  C        -2.4740835069       13.9673771425       33.9173501713
  H        -1.8251589161       12.2416625449       32.7207338792
  H         7.9875408222       13.6479808332       17.7249913655
  H         6.3516870593       13.0206326121       17.8339315515
  H         6.7371082095       14.7243611474       17.9241281740
  S         3.9741898373        9.6325154270       14.3844109488
  C         3.6915844698        7.0321879445       13.6016316955
  H         3.6975811511       11.0831997147       30.7200109625
  H         3.1289362745       10.0076327902       31.8946710260
  C         4.9738987561        9.3431498046       30.9026199434
  H        -5.4917698722       11.4482341679       26.7219304935
  H        -6.1048814388       10.6327692532       28.2000136270
  C        -6.8149652693        9.6505760749       26.4410177723
  S        -2.0068843720       18.0118364032       31.3051101123
  N        -2.3655693493       17.5208083392       32.7948741084
  C        -2.7177882091       15.4400472386       33.9654794232
  H        -2.5511651001       13.4301887912       34.8076609479
  C         4.2796055481        9.0107739285       12.7619756023
  N         4.1481905538        7.6801467930       12.5597264593
  O         3.3404947301        5.8437457913       13.6945795389
  H         5.6824612220        9.8667499670       31.4945450918
  H         5.3849070802        9.4178983894       29.9051751255
  C         4.8323341413        7.8179154253       31.3180899247
  H        -6.3797723464        8.8045667647       25.8679427999
  H        -7.5215630893        9.2057706015       27.1647753049
  C        -7.6342716747       10.5610530979       25.4594482123
  C        -2.9985517106       16.2524996551       35.1839629535
  S         4.6801838025       10.1219604867       11.3686505709
  C         4.3255519388        6.9279616492       11.2628121395
  H         4.7468441894        8.0412432177       32.3842018976
  H         3.9601051947        7.2580291174       30.8804609320
  C         6.0718296364        6.9795279872       31.3044863943
  H        -6.9923478222       10.5228777526       24.5231252849
  H        -7.5032587193       11.5830168158       25.8072144472
  C        -9.1721356959       10.2669157671       25.3738688108
  H        -2.7226653786       17.3019393457       35.1342055107
  C        -3.4443916450       15.9300084558       36.4677972892
  H         5.2358994674        7.2787702451       10.7527048296
  H         4.5470001033        5.9475193071       11.5551542863
  C         3.0754503675        6.8315052089       10.4396440921
  H         5.8665484710        6.0799788964       31.8970750778
  H         6.8147077213        7.5540523536       31.8513709907
  C         6.4224864327        6.5192423939       29.9326419281
  H        -9.5113738927       10.6691474544       24.4097864237
  H        -9.5436376410        9.1652855261       25.3579699338
  C        -9.9086627904       10.9999592903       26.4870200739
  S        -3.6695307293       14.3755162125       37.0984744614
  C        -3.4701440593       16.9711368016       37.4778099628
  H         2.9528386648        5.8864364288        9.9843608421
  H         2.2461150033        7.2173695783       11.0487660850
  H         3.0845202771        7.4258673461        9.5514868308
  H         6.9295949530        5.5617916849       29.8627808391
  H         7.0039111221        7.3483485910       29.5495092964
  H         5.6501167008        6.4689482469       29.2347464346
  H        -9.5595448482       10.8730078842       27.5415860830
  H       -10.9450995223       10.6721377392       26.5706525653
  H        -9.8929189223       12.0904059271       26.2619719153
  C        -3.9233528284       15.0985918686       38.7207347316
  N        -3.8486652137       16.4773340714       38.6421247099
  O        -3.1235571018       18.1634050896       37.2640348302
  S        -4.3361285839       14.3343528605       40.1477169839
  C        -3.9121338196       17.4041019083       39.8015776319
  H        -4.3400836030       18.4280338440       39.4950186986
  H        -4.4239769881       16.9311327223       40.6341738348
  C        -2.5009173078       17.7069973834       40.2443130964
  H        -2.4002763394       18.7567276348       40.4129242683
  H        -2.1015954322       17.1762325229       41.1434356627
  H        -1.7247784481       17.4441656186       39.4605494313
  H         7.8791103626       11.6230091091        3.1944257688
  C         8.4850922566       10.7723683396        3.4239362991
  H         7.7400860375       10.0013919824        3.3358193195
  C         9.0812415371       10.8789108965        4.8805891889
  C         9.5300593726       10.8232008944        2.3712672734
  C         8.0010495033       11.0742370413        5.9973415318
  H         9.6407116641        9.9821629113        4.9866842836
  H         9.8224506960       11.6879100581        4.9499934382
  H        10.1849379449       10.0105521965        2.5660574528
  H        10.1558221098       11.7754534623        2.5069600283
  H         8.9660378838       10.7206880368        1.4827835939
  C         7.4628972502        9.8100778254        6.6499949693
  H         8.6292005934       11.4421662722        6.7704362232
  H         7.2828061579       11.8104328723        5.7977953053
  C         6.6176911917       10.0090586909        7.8883506493
  H         8.1510288692        8.9641578339        6.8365497606
  H         6.6573856794        9.4024062283        6.0088157509
  C         5.2577164435       10.7488640266        7.7595288318
  H         7.3437978632       10.6416352998        8.5890407119
  H         6.4590186120        9.0040179668        8.4387499313
  C         4.1291990523        9.9078487111        7.0895234656
  H         5.0823439995       11.3135685572        8.6622804058
  H         5.5023878090       11.5616749082        7.1010089952
  C         2.9024958805       10.8493902859        6.8350854216
  H         3.8666079779        8.9883314809        7.6639751327
  H         4.3441264238        9.4047292983        6.1247027383
  C         3.2987921473       12.1831811163        6.1546671967
  C         2.4647837994       11.4269800991        8.1373384579
  C         1.6994367301       10.1878418281        6.0942134081
  C         3.1043122750       13.2099824794        7.0109389433
  C         3.8460297968       12.6014126384        4.9341829403
  C         2.5449629452       12.7707697839        8.2615238993
  C         1.9845164306       10.7653253598        9.2720764332
  H         1.9567939482        9.7806057136        5.1302782515
  H         1.3203991199        9.3327014683        6.5699446719
  C         0.4214133182       11.1107651089        5.8848080871
  S         3.4160359533       14.7831473128        6.2860416776
  C         3.9136193980       13.9472878584        4.8260925560
  H         4.1584680719       11.7759611293        4.2294886348
  C         2.2405416370       13.4132364528        9.4046682022
  H         1.9531957257        9.7038789401        9.2761418933
  C         1.6680165674       11.4737911308       10.4514920956
  H         0.7062096159       11.9456150288        5.3503372996
  H        -0.0128200092       11.4481217333        6.8785826623
  C        -0.7014337433       10.4011425745        4.9640408879
  C         4.3875293313       14.7481903254        3.6629539651
  C         1.7274309220       12.8195706010       10.5535446137
  H         2.2254192080       14.4897994587        9.4759475183
  C         1.1986407291       11.1115443924       11.6729330671
  H        -1.6633309179       10.8782594362        5.2741850798
  H        -0.6453759190        9.3867601391        5.1650703193
  C        -0.3689342071       10.6672069918        3.5162356642
  C         4.2494633664       16.1226170059        3.4644161468
  C         4.8381108141       13.9207168456        2.5534414297
  C         1.3228748505       13.4891038110       11.8409077998
  C         0.9983678224       12.1846905278       12.5121121898
  S         0.9506483092        9.5833322883       12.5484836337
  H         0.6998170866       10.7449025133        3.3283093567
  H        -0.7232020349       11.6367962204        3.1559000086
  C        -0.8523194384        9.6006656537        2.5190746360
  N         3.8537952719       17.0954819510        4.3574024401
  C         4.5588905359       16.6985921361        2.2865774220
  C         5.1120635472       14.4935712842        1.2617890738
  H         5.2401948436       12.9835852398        2.7767887730
  C         0.0372274409       14.3693368684       11.6776046286
  C         2.4416884490       14.3315377926       12.5768186358
  C         0.5107453689       11.8576164132       13.7686763928
  C         0.3883789568       10.4840896157       13.9546732331
  H        -0.5230878331        8.6628910658        2.6879718471
  H        -1.9458620115        9.5948997562        2.6612404172
  C        -0.5503920688        9.8629173820        0.9905393287
  S         4.0644579908       18.6327544601        3.7804259794
  N         4.4947537186       18.0801513386        2.3215664809
  C         4.9337692018       16.0042503818        1.0986582159
  H         5.4511870801       13.8783680425        0.4733807244
  H         0.1964100358       15.2918013288       11.0529262012
  H        -0.1401913187       14.9724408607       12.5169083300
  C        -1.2186662929       13.7038803332       11.1166941308
  H         2.8507091584       15.2390316108       12.0328164153
  H         1.8983656650       14.7024856102       13.4638185618
  C         3.5325818687       13.5133405038       13.0803787427
  H         0.3990198623       12.6787160151       14.5120237282
  C        -0.0148897623        9.8531372590       15.2509805659
  H         0.0695985709        9.0587745879        0.7333289411
  H         0.1556368607       10.7342357280        0.8110054474
  C        -1.6606093940        9.8598844668        0.0211385794
  C         5.1791827647       16.7627564513       -0.0708578237
  H        -0.9843431464       13.3422452508       10.1569527088
  H        -1.5411429812       12.8017433688       11.6367735745
  C        -2.3907373956       14.7459248746       10.9202463602
  H         4.0476067982       13.0284489771       12.2099985259
  H         3.1712237366       12.8639298486       13.8111806804
  C         4.4118513540       14.5515883773       13.6644929496
  C        -0.1222635689        8.4592827611       15.3856020141
  C        -0.1656562810       10.6521310663       16.4453234558
  H        -2.1457196859        8.9446054114        0.1276809216
  H        -2.3760992678       10.5935561401        0.2605466131
  C        -1.0560786227       10.0545337724       -1.3794965357
  H         5.2936004899       17.8023776137        0.0827417966
  C         5.4361737003       16.5038731579       -1.3900643618
  H        -2.1758333829       15.3102869782       10.0033225597
  H        -2.3651842744       15.4714699904       11.6992350316
  C        -3.7390805992       14.0396729399       10.8505070338
  H         4.7730816846       15.1914352653       12.9007467935
  H         3.7994735207       15.1973618361       14.2134240833
  C         5.6247702008       14.0068024445       14.5291953346
  N         0.4404644968        7.5410945913       14.4457314052
  C        -0.4395946642        7.8310237210       16.5643200100
  C        -0.4243916158        9.9942170521       17.6269868999
  H        -0.0734142702       11.7666188404       16.4479059044
  H        -1.8782901374        9.9256026053       -2.0703566503
  H        -0.3254169011        9.3133928875       -1.5652696677
  H        -0.6493219770       11.0145543289       -1.6198944311
  S         5.6120879518       14.9543638190       -2.1674309705
  C         5.5903590495       17.6545137997       -2.3698716345
  H        -3.7845058050       13.2016366745       11.4303143128
  H        -4.4560443889       14.7536116089       11.1874840231
  C        -4.0428111848       13.6785684351        9.3351113817
  H         5.4769831566       12.9176654085       14.6352923490
  H         5.5433876130       14.2790841559       15.5048258521
  C         7.0273442941       14.4247391801       14.0393896328
  S         0.3528309144        6.0578062371       15.0271290258
  N        -0.2213138742        6.4231351511       16.5311141356
  C        -0.5999553093        8.5413716528       17.7216157891
  H        -0.3827099209       10.4941408781       18.5468822544
  C         5.7090451652       15.8495560090       -3.6760720493
  N         5.7163166694       17.1988970037       -3.6545556813
  O         5.4801282372       18.8815585827       -2.0059345561
  H        -4.1114619461       14.5375897928        8.6789408125
  H        -3.1398487015       13.1575845479        9.0006885018
  C        -5.2733926599       12.7893120620        9.2318645526
  H         7.5708363302       13.5100544472       14.1045295208
  H         7.0717503023       14.7234670997       13.0035367490
  C         7.5830780771       15.6042876467       14.8555046787
  C        -0.9146205460        7.8003124718       18.8958934055
  S         5.9645853454       15.0919559922       -5.2858155683
  C         5.8140945437       18.0884574237       -4.8078134950
  H        -5.1796883587       12.1981889609        8.3369303647
  H        -5.4091399541       12.0817985157       10.0514607361
  C        -6.5804215626       13.5657567988        8.9708544073
  H         8.6669236497       15.5400734676       14.7433699939
  H         7.6004149820       15.3202217701       15.9002812127
  C         6.9471251009       17.0309637180       14.6961752849
  H        -0.9082967076        6.7043810394       18.8150076770
  C        -1.3822491300        8.1637918317       20.1582349263
  H         6.3330995518       17.7062289074       -5.6725329231
  H         6.3386552277       18.9239318596       -4.5115315187
  C         4.3831297777       18.3040180147       -5.3620704147
  H        -7.2190601077       12.9918173974        8.2443800854
  H        -6.4097514355       14.5339954512        8.4398976561
  C        -7.4094803424       13.6143207829       10.2872215242
  H         6.9708116151       17.4096401431       13.6784344810
  H         5.9379869378       17.0822539806       15.0846697320
  C         7.7198616833       18.0629735528       15.5079752799
  S        -1.7762570874        9.7753076848       20.7423329894
  C        -1.4989821352        7.0934330751       21.1903800018
  H         3.9885699525       17.3277435751       -5.5623789983
  H         4.4837636380       18.9110038534       -6.3298931164
  H         3.7203982828       18.7595845094       -4.6967674557
  H        -7.4357915595       14.5949376284       10.4886445784
  H        -8.4727309525       13.4089333552        9.9735643194
  H        -7.1800032532       13.0396341774       11.2473025505
  H         8.2632036225       17.6652947653       16.3715875388
  H         8.4415601029       18.6961908386       14.9631750006
  H         7.0178696121       18.8963280643       15.7450767669
  C        -2.2629332551        8.9573863076       22.2753669805
  N        -2.0909863111        7.6239530200       22.2695360276
  O        -1.4009018314        5.8557104671       20.9521741791
  S        -3.0610089513        9.7189023757       23.6673728306
  C        -2.4589526371        6.8174646625       23.4927768848
  H        -2.7085989998        5.7616067420       23.1597079899
  H        -3.3475475792        7.1150283713       23.9335987304
  C        -1.3272827629        6.8189308476       24.5747606276
  H        -0.5475913836        7.5367403619       24.3870537636
  H        -1.0611936590        5.7505006670       24.8814473689
  H        -1.8338015615        7.0989774319       25.5056676588
