352
i =
  H        -2.6017598838       15.6245669258       15.9309259168
  C        -2.8188879670       14.5575641611       16.2665904271
  H        -3.8680813788       14.6486642891       16.6457580395
  C        -1.9859304996       14.1502522314       17.5406883999
  C        -2.6724084768       13.5413463145       15.1676538573
  C        -2.8392071429       13.8336184516       18.7576152843
  H        -1.3798672010       13.2519530704       17.3383858456
  H        -1.3506580564       15.0129513128       17.9090504899
  H        -3.6212882346       13.4594843392       14.7236401719
  H        -2.0754779512       13.7595982463       14.3185565319
  H        -2.5879476085       12.4915237566       15.5258345535
  C        -1.9782861185       13.3636380313       19.9572066236
  H        -3.5851661817       13.0734137430       18.5215950176
  H        -3.4412537139       14.7460734476       19.0389688165
  C        -2.5547965975       13.6099280874       21.3351476093
  H        -1.8651943333       12.2350801221       19.8569399940
  H        -0.9217438860       13.7821442631       19.8720669706
  C        -1.5979567216       13.0805769870       22.3779785805
  H        -3.5707463004       13.0966739563       21.5251573239
  H        -2.5273007507       14.6113822904       21.5091909613
  C        -0.3439950484       13.9001929949       22.7278523693
  H        -2.1969348825       12.9448290121       23.2951730478
  H        -1.2143695468       12.0773881075       22.0406687535
  C         0.9109342722       13.2359064052       23.3242865474
  H        -0.1940928699       14.6492089853       21.8794258049
  H        -0.5881183611       14.4252924428       23.6421599535
  C         1.2414104155       11.9224160845       22.5942319863
  C         0.4011968776       12.4971298762       24.5472312208
  C         2.2117176696       14.0517666730       23.5543378048
  C         1.0603349710       10.7942264323       23.4525377566
  C         1.5349273481       11.5473597459       21.2660872707
  C         0.5097371663       11.1588428751       24.6548743738
  C        -0.1814944245       13.0633499527       25.7033066589
  H         2.4464636339       14.6184029733       22.6936370906
  H         2.0152518404       14.8996368212       24.2554589363
  C         3.3550867074       13.1453690461       24.1968320093
  S         1.6040118182        9.3765646744       22.7435573878
  C         1.8103542013       10.1973528697       21.2013320709
  H         1.4322319716       12.2987977326       20.5173717292
  C        -0.0148831373       10.4609800982       25.7007904811
  H        -0.3018551676       14.1373492095       25.6836069425
  C        -0.5327410049       12.3580376520       26.8322809166
  H         3.5478506519       12.1891407975       23.5812033270
  H         2.9830954076       12.7762067186       25.1315598895
  C         4.6935110615       13.8571521795       24.5966173323
  C         2.2771266779        9.5359990395       19.9660100910
  C        -0.4647173828       11.0466200664       26.9271881876
  H        -0.0185182727        9.4684321418       25.7643298855
  C        -0.9981965403       12.7420518795       28.0721529174
  H         5.3061512791       13.2717407575       25.1234832295
  H         4.3927987337       14.7119338683       25.1943645959
  C         5.4798156281       14.4624982828       23.4619233303
  C         2.4806543607        8.0723238622       19.7494368502
  C         2.6899132461       10.3834147689       18.8138295279
  C        -0.9727737090       10.3259981567       28.1388475554
  C        -1.2029951546       11.6375576218       28.8394679948
  S        -1.4201744630       14.2152735386       28.8237934037
  H         6.3290958196       15.0849656416       23.7533575701
  H         4.9486429985       15.1469125521       22.9772903739
  C         6.1124282154       13.3124079415       22.5151522416
  N         2.3711870513        7.0949029108       20.7298530391
  C         2.8078054710        7.5509847907       18.5151445771
  C         3.0766061489        9.8173882751       17.6277810289
  H         2.6367440615       11.4861842136       18.9203894353
  C         0.2527064747        9.4519151707       28.6138667309
  C        -2.2160444622        9.5899046937       27.7743680501
  C        -1.4817620236       12.1094065435       30.1428742282
  C        -1.7366230989       13.4465280807       30.2263531866
  H         7.1555290757       13.4098212670       22.6685733911
  H         5.8161517518       12.3760269056       22.8346691127
  C         5.9555893434       13.5552409396       21.0012856328
  S         2.3026804257        5.6480554062       19.9355027968
  N         2.7036087953        6.1497943760       18.4544034424
  C         3.1313563652        8.3546555129       17.3722292730
  H         3.3373496391       10.5288477777       16.8322322612
  H         0.7479477768        8.9637198784       27.7193241176
  H        -0.0808020195        8.6966053364       29.2809336026
  C         1.4412851872       10.1948286052       29.1404196016
  H        -1.9621564485        8.7795466166       27.1283194511
  H        -2.6069213378        9.2654697968       28.6917251752
  C        -3.3694756578       10.2895529298       27.0360519849
  H        -1.5833079554       11.4051974975       31.0374277355
  C        -2.0367955331       14.2053656986       31.5483539144
  H         5.5179359914       14.5487231108       20.8153127628
  H         5.1882014779       13.0137604506       20.5179094800
  C         7.2914529528       13.5456463902       20.2078898785
  C         3.2668387788        7.7218325144       16.0439070459
  H         1.8375283148       10.7203536678       28.2737960144
  H         1.1728931881       10.8918294593       29.8891095708
  C         2.3863535053        9.1982142179       29.6615546323
  H        -3.0532412866       10.2599964160       25.9905185260
  H        -3.6495234735       11.3112387089       27.3540215682
  C        -4.7791653624        9.6587488681       27.0148616090
  C        -2.0551969003       15.6074475556       31.6499868709
  C        -2.3644276843       13.5025494187       32.8042302816
  H         7.9578719881       14.3102230383       20.5699684721
  H         7.7018933984       12.5593017560       20.3508821500
  C         7.0846133548       13.9947445778       18.7835294117
  H         3.0357740939        6.7321643875       15.9663804201
  C         3.6344031253        8.2057499795       14.7926201065
  H         2.5855744100        8.5332607335       28.9222387432
  H         2.0573155809        8.5968279120       30.4775683575
  C         3.7679668617        9.8061974241       30.1219746279
  H        -4.7033287802        8.6285440418       26.7602372183
  H        -5.1224268662        9.7014854000       28.0374898357
  C        -5.7489448550       10.5269674433       26.2179952410
  N        -1.8914250832       16.4318252438       30.6245051668
  C        -2.3409180538       16.3056960070       32.8124362986
  C        -2.5322187381       14.1589764811       33.9593173010
  H        -2.1292007491       12.4637218358       32.8545083008
  H         7.7680193824       13.5734056676       18.0820121564
  H         6.0378035440       13.8747080154       18.4301296554
  H         7.2424355209       15.0012128456       18.7941136154
  S         3.8819371768        9.8579502291       14.3318193265
  C         3.7122824168        7.2801009347       13.6645710000
  H         3.9325144296       10.6424804513       29.4192775752
  H         3.5976461933       10.1216218259       31.1819011937
  C         5.0313986255        8.8871164553       30.1715347958
  H        -5.1638777437       11.2435341019       25.5684081099
  H        -6.3202948000       11.1067409730       26.9079464981
  C        -6.7104782061        9.8047672510       25.3052638509
  S        -1.9573554076       17.9516228059       31.0942338140
  N        -2.3412875900       17.7102283653       32.6437574966
  C        -2.5552210660       15.6042056277       34.0103395308
  H        -2.6273066114       13.5422922937       34.8427556089
  C         4.2362706932        9.2378147906       12.7243347106
  N         3.9963815262        7.9354400498       12.5188567510
  O         3.7220012403        6.0277198503       13.7823393297
  H         5.9221864070        9.3488846978       30.5769430438
  H         5.2735228638        8.4247294006       29.1471003757
  C         4.7400419347        7.7854489288       31.2240342407
  H        -6.2029618519        9.2577059924       24.5574755446
  H        -7.2806004409        9.0581194425       25.8533979543
  C        -7.6673426572       10.8322211813       24.7746552543
  C        -2.6534997062       16.3905902749       35.2067416550
  S         4.6378444380       10.3332699977       11.3678213657
  C         4.1568939223        7.3378036036       11.1752397665
  H         4.4402107715        8.2655798041       32.1716640985
  H         4.0207757036        7.1035539130       30.8394175798
  C         5.9503014364        6.9859395779       31.4693255211
  H        -7.2575670070       11.3665102558       23.9235382038
  H        -7.8753090747       11.5699492489       25.4451948228
  C        -8.9402528362       10.0226673328       24.5396700190
  H        -2.2480348002       17.3522245587       35.1046621025
  C        -3.3051056072       16.1161922328       36.4033375326
  H         4.5061542435        8.1049793598       10.4181795356
  H         4.9099660979        6.5473875199       11.0984375898
  C         2.8045953772        6.8752792979       10.7059294406
  H         5.8286419714        6.4569941604       32.4100671447
  H         6.6819979086        7.6692751085       31.8747491167
  C         6.3245824658        6.0176828397       30.3132855214
  H        -9.5460946400       10.4712587982       23.7786812768
  H        -8.7483073891        8.9241086369       24.4564007633
  C        -9.7586072406       10.1225374142       25.8064257997
  S        -4.0456158898       14.6196279314       36.7717736029
  C        -3.3015197214       17.1850260318       37.3690366471
  H         2.9778595582        6.6677452282        9.6639262489
  H         2.6120605097        6.0826272118       11.4420905684
  H         1.9760645473        7.5538652592       10.8239255597
  H         6.7449015427        5.1742763843       30.8256233105
  H         7.0366543505        6.4197293426       29.5932675250
  H         5.4934666398        5.6893215070       29.7804054956
  H        -9.2448667529        9.7133046534       26.6651737649
  H       -10.7564032550        9.6357620512       25.7658055585
  H        -9.9131790223       11.1538976969       26.1188096581
  C        -4.3045662858       15.3877827698       38.3955088095
  N        -4.0363759376       16.7371020098       38.4086458484
  O        -2.7972800599       18.3438600079       37.3659815336
  S        -4.9946074028       14.5366156109       39.8166661873
  C        -4.3207705484       17.5165633770       39.5623213845
  H        -4.5946498137       18.5602119639       39.3088405121
  H        -5.1782573584       17.2655009188       40.1229098133
  C        -3.0531486900       17.3885644653       40.4579764774
  H        -2.6862488939       18.2610232419       40.9430339857
  H        -3.3336091008       16.7694390293       41.3191240041
  H        -2.1788972529       16.7998533313       40.0378186771
  H         7.3486010337       11.6330291935        3.2968637042
  C         8.0625945596       10.7854875124        3.2379119731
  H         7.3131841952       10.0128950168        3.0412259555
  C         8.7952547224       10.6085951671        4.6105750695
  C         9.0902426816       11.0695001975        2.1488894413
  C         7.8274515087       10.7907948585        5.7028586449
  H         9.2216335075        9.6324140287        4.6576675059
  H         9.5226176680       11.4128525725        4.8721988042
  H         9.9234584418       10.4135090216        2.0939013634
  H         9.6159990353       12.0476248124        2.2863135187
  H         8.5292005809       11.1271372724        1.2710737782
  C         7.2881869496        9.4774460441        6.2089781122
  H         8.4475878910       11.2754659177        6.5465704215
  H         7.1573833421       11.5249080429        5.2867991567
  C         6.4654293876        9.6710839566        7.5759072598
  H         8.0956263988        8.7642246752        6.2187581719
  H         6.4916862826        9.1707081587        5.4985647092
  C         5.3234942142       10.6874037070        7.6004047471
  H         7.1201980821        9.8675957708        8.3590336854
  H         6.0597470554        8.7960526680        7.9020367149
  C         4.0501708619       10.1827654903        6.9173095466
  H         5.0926019296       10.8288111163        8.6614239794
  H         5.5580314103       11.7153455494        7.2297150831
  C         2.8155801890       11.1412558574        6.7655940833
  H         3.8899479460        9.1407530204        7.2985672690
  H         4.3796725175       10.0234377261        5.8643323666
  C         3.1375245386       12.4454533990        6.1003997652
  C         2.4161566343       11.7736204589        8.0341091445
  C         1.6610082763       10.3447854050        5.9954507920
  C         2.9327352658       13.4888891086        6.9069881926
  C         3.7706305336       12.8271492271        4.8828830140
  C         2.4194399060       13.1032916322        8.1659896182
  C         2.0657384502       11.1893279175        9.2404657448
  H         2.2127644420       10.0558896593        5.0510370082
  H         1.4322142734        9.3811203268        6.4440586090
  C         0.3670727119       11.1777990396        5.6914267990
  S         3.2422741470       14.9981737034        6.1588125536
  C         3.9175739954       14.1530446493        4.7995703277
  H         4.0544119508       12.1162063122        4.2467755495
  C         2.0390553111       13.7350156673        9.3161705191
  H         2.0779700011       10.1528281949        9.2397590782
  C         1.5905966024       11.8523411908       10.3641802363
  H         0.5846639628       12.1387884524        5.3498199643
  H        -0.1990252063       11.5431991459        6.6263335697
  C        -0.4284379055       10.5200171520        4.6374832047
  C         4.2192822815       14.8794730405        3.5533674038
  C         1.5921255821       13.1671733972       10.5038479252
  H         1.9036885163       14.8117147595        9.2404544648
  C         1.1498823105       11.3974792569       11.5529425093
  H        -1.3960311935       11.1040152187        4.3748801346
  H        -0.8031685035        9.5925094643        4.9999692997
  C         0.3999843876       10.2585317755        3.2955001004
  C         4.1152105025       16.2621572290        3.3488812993
  C         4.7301700837       14.0519233145        2.3633197389
  C         1.0251836395       13.7917982513       11.7360799672
  C         0.8114255018       12.4751867811       12.4019822969
  S         0.9500838683        9.8688628441       12.2902186920
  H         1.0651695686        9.3712368749        3.3304907041
  H         1.0745263094       11.0896091120        3.0066989662
  C        -0.4821824929        9.9717549988        2.0539682059
  N         3.7774649097       17.3217086099        4.2617041361
  C         4.4713034495       16.8277838432        2.0781470090
  C         4.9916386670       14.6212806732        1.1692178819
  H         4.8810667150       12.9209196548        2.3845655905
  C        -0.3173915107       14.6223390171       11.4115282048
  C         1.9869476428       14.6189320712       12.6107986970
  C         0.3253779652       12.0987095284       13.6086114520
  C         0.3745523395       10.6896439685       13.6644675471
  H        -0.6116880596        8.9301687685        1.9515422462
  H        -1.4894256175       10.4718577699        2.2501570624
  C        -0.0067504343       10.5465099450        0.7586867772
  S         3.9226198705       18.7695196647        3.5445133202
  N         4.4759088244       18.2546579100        2.0555515829
  C         4.8444127076       16.1285694063        0.8766457406
  H         5.3277574321       14.0202880768        0.3875120084
  H        -0.1590054440       15.3306896298       10.5269052237
  H        -0.5916601268       15.1766739296       12.2669345435
  C        -1.5161786504       13.7699145697       11.0498481520
  H         1.9905605854       15.7063951020       12.4648148738
  H         1.5793044557       14.5581129703       13.5931520754
  C         3.3805578399       14.1222475463       12.7155168461
  H        -0.0227660816       12.8820082298       14.2684066631
  C         0.0027287549        9.8263612764       14.8799879543
  H         0.8029284350        9.9507906437        0.5029713297
  H         0.4582141629       11.5571597471        0.8916119244
  C        -1.1533766357       10.2852352737       -0.2671218755
  C         4.9841747630       16.9040842753       -0.3030018051
  H        -1.1687908523       13.1385888676       10.2277682743
  H        -1.8113666094       13.2355247409       12.0069597678
  C        -2.7734753147       14.6012005801       10.7098339447
  H         4.0427048179       14.4059487609       11.8602893658
  H         3.3728305756       13.0960759814       12.7085436226
  C         3.9284320375       14.5422943665       14.0807350770
  C         0.0168101795        8.3855115936       15.0219321278
  C        -0.2243154034       10.4980544295       16.2221793997
  H        -1.4352910312        9.1819456512       -0.3293625737
  H        -2.0290769558       10.9038593648        0.1036769250
  C        -0.8803201137       10.9124276755       -1.6327650677
  H         5.0035554638       18.0270422371       -0.1911692792
  C         5.2989428033       16.4780424705       -1.5626884567
  H        -2.5323469765       14.9927031254        9.7069710200
  H        -3.0893878683       15.4073170750       11.3393445401
  C        -3.9899913741       13.7459050789       10.4121882777
  H         4.2255096506       15.5987740865       14.1342980511
  H         3.2400053306       14.4591594506       14.9848653439
  C         5.1667062873       13.7007863705       14.3885452754
  N         0.3372732298        7.4776677098       14.0376726857
  C        -0.1156363171        7.7044270300       16.2695219204
  C        -0.3970066082        9.8219480272       17.4260219356
  H        -0.4252840124       11.5288601594       16.2523373162
  H        -1.7229090199       11.3247899499       -2.2142022779
  H        -0.2032463183       10.4011490575       -2.2684500992
  H        -0.2981568102       11.7687081017       -1.3525055754
  S         5.6314759573       14.8785291170       -2.0283338650
  C         5.2576699543       17.4529778072       -2.6455671748
  H        -3.9216143466       12.7432524904       10.9080149498
  H        -4.8086582852       14.3272229941       10.9658604162
  C        -4.1353484320       13.5495970597        8.8602402172
  H         4.8321599971       12.6166776266       14.0847377278
  H         5.2525897862       13.4983249181       15.4382945392
  C         6.4210723829       14.2788595635       13.6685674599
  S         0.3370921229        5.9623384069       14.5883056180
  N         0.0451436729        6.3242649382       16.1177840391
  C        -0.4184040157        8.3364861804       17.5106511854
  H        -0.6427418439       10.3836217271       18.2640390937
  C         5.5769075736       15.5153407366       -3.6577868949
  N         5.6050540057       16.8641633086       -3.8152496168
  O         5.0850051157       18.7022789405       -2.5298531148
  H        -4.1793172304       14.4226987221        8.2364306912
  H        -3.2254127639       12.9826477326        8.6197329347
  C        -5.3903764217       12.7709223730        8.5632632096
  H         7.1491593376       13.5067985634       13.3716192360
  H         6.3837937629       14.8723679704       12.7289270224
  C         7.2119907610       15.1844883745       14.6512804984
  C        -0.7644442712        7.4813605984       18.5869279873
  S         5.8973086673       14.6438086634       -5.1347507572
  C         5.6464944754       17.6297346377       -5.0941049236
  H        -5.2929542203       12.1167286030        7.6228693627
  H        -5.5121160005       12.0668551293        9.4108225102
  C        -6.6215373787       13.6323213117        8.2496723414
  H         8.1360100704       15.2317282115       14.0459134274
  H         7.4985894635       14.6698474359       15.5807927720
  C         6.5098106872       16.5599530529       14.9992457167
  H        -0.5420209094        6.4418823439       18.4509792279
  C        -1.1871200363        7.9177964988       19.8633397013
  H         6.4756836746       17.2620588318       -5.7585914030
  H         6.0053635189       18.6516218603       -4.9131049782
  C         4.2536292713       17.5542436351       -5.7783967287
  H        -7.0382692181       13.4221737367        7.2904324379
  H        -6.2727811392       14.6393895328        8.1443658546
  C        -7.7522718590       13.4733028750        9.3734153027
  H         5.9729677644       16.8951051623       14.1370131688
  H         5.8385591508       16.3753027629       15.8074530140
  C         7.4613516616       17.6911751281       15.4548058894
  S        -1.5677354159        9.4510737848       20.5070775915
  C        -1.3097087783        6.8213280415       20.7912480318
  H         4.1271320127       16.7480092637       -6.4525009999
  H         4.1903566605       18.5364556058       -6.3102924526
  H         3.5647921410       17.4646462999       -5.0324515107
  H        -8.0947263813       12.5318152243        9.6333424064
  H        -7.3267962214       13.9625421396       10.3216219273
  H        -8.6364098250       14.0912614398        9.1413409779
  H         7.8672822961       17.2392766319       16.3582639105
  H         8.3547088491       17.9574855538       14.8596713909
  H         6.8273909700       18.5995678586       15.4991636052
  C        -2.0220804601        8.5825144218       21.9824437601
  N        -1.7740300693        7.2532113842       21.9592506532
  O        -1.0947478646        5.6651268321       20.5193319844
  S        -2.7239076786        9.2978201922       23.4249254151
  C        -1.9454556700        6.3039571970       23.0978056001
  H        -1.8962220493        5.2548082287       22.6649559387
  H        -2.8277347710        6.5662951660       23.5818023637
  C        -0.8319856983        6.4341637621       24.0859508713
  H         0.1195967362        6.5895561361       23.5675647635
  H        -0.8338514675        5.4412924225       24.6896178595
  H        -0.8827962291        7.1855292022       24.9056175142
