352
i =
  H        -4.3203602236       14.3717722927       16.5262409392
  C        -3.6853319760       13.4448819586       16.4326275482
  H        -4.3637987618       12.5962008301       16.5446350219
  C        -2.6361045609       13.4787725638       17.5645333428
  C        -2.9877424450       13.3903603911       15.0705918532
  C        -3.2680136909       13.0755727153       18.9153273358
  H        -1.8228130139       12.8445042882       17.2889319985
  H        -2.2022440860       14.4690164352       17.5137238210
  H        -3.7525745994       13.4134728071       14.3687380267
  H        -2.2780899595       14.1897585432       14.8617330984
  H        -2.6377463248       12.3595430687       15.0004455652
  C        -2.1591116868       12.7495503785       20.0036057656
  H        -3.8552638867       12.2144267516       18.9224523225
  H        -3.9522722842       13.9286748189       19.1961690963
  C        -2.7359018023       12.8862662941       21.4245122233
  H        -1.8675826267       11.7643116365       19.9282707223
  H        -1.2201914173       13.3027035878       19.7390208202
  C        -1.8019947870       12.4059224163       22.4266617016
  H        -3.6970724954       12.2813860766       21.5057935459
  H        -2.8894956081       13.8960232475       21.5768693320
  C        -0.5177441846       13.3076555957       22.6395620307
  H        -2.3007104354       12.3334506846       23.4239618130
  H        -1.6007468134       11.3816675405       22.0960096047
  C         0.7120856583       12.5847464851       23.3845561372
  H        -0.1365529615       13.6490927625       21.6843995791
  H        -0.6930318885       14.1913332907       23.2864554957
  C         1.1537390643       11.3144111015       22.7253654602
  C         0.2210287271       11.8872259889       24.6371560235
  C         1.9394993201       13.4769144790       23.6314148857
  C         0.8814055045       10.2253516464       23.5011799138
  C         1.7455480278       10.9922893311       21.4936715710
  C         0.2603830400       10.5317551606       24.7597162591
  C        -0.2938884932       12.5331792405       25.7826875311
  H         1.9345254337       14.1770088259       22.8397377613
  H         1.7713665057       14.0183760779       24.5348395372
  C         3.2810763733       12.8597676475       23.9009984620
  S         1.2497531391        8.7624444239       22.6978372636
  C         1.8061802208        9.6298667567       21.3411915876
  H         2.0456703763       11.7508397967       20.8435288600
  C        -0.1869730930        9.9418475672       25.9096736556
  H        -0.3692149296       13.6230519942       25.6035473819
  C        -0.7180796013       11.9295206181       26.9327068250
  H         3.6561994807       12.3861779251       22.9862429653
  H         3.1645424240       12.0939385664       24.7457687679
  C         4.2339566859       13.9155589169       24.4081309804
  C         2.0784172624        8.8983187887       20.0591108341
  C        -0.5869839897       10.5819215177       27.1308798011
  H        -0.2254131537        8.8677436997       26.0373894496
  C        -1.0648901821       12.3980443317       28.2143538432
  H         5.1564015767       13.4894649668       24.8676874566
  H         3.8558132471       14.4868408130       25.2704760911
  C         4.8146186380       14.6620728305       23.1971150482
  C         2.0149158328        7.5366924361       19.7849626296
  C         2.4507652824        9.6980573462       18.8579723070
  C        -0.9112132177        9.8992642998       28.3911726358
  C        -1.2344282203       11.2897620437       29.0727850168
  S        -1.2156371360       13.9283921675       28.9376806888
  H         5.1379430312       15.6212835469       23.5099208506
  H         4.0217804852       14.8607176918       22.5790502120
  C         6.0236427834       14.0901231387       22.4040918092
  N         1.7583471493        6.4950698766       20.7068397556
  C         2.4302255167        6.9664993660       18.5476844358
  C         2.8365000572        9.2003851669       17.6421097587
  H         2.5600272981       10.8146140675       19.0210650023
  C         0.3326590231        9.1488780915       29.0041401478
  C        -2.2239035927        9.0911923430       28.2023022992
  C        -1.6863237570       11.7786887791       30.3200569346
  C        -1.6351988285       13.1257816451       30.4218738930
  H         6.6180121433       14.9069356918       22.1564704330
  H         6.5384376749       13.3383591679       23.0347349800
  C         5.7231237782       13.2312883510       21.1500442530
  S         2.0259976142        5.0315607777       19.9735655056
  N         2.2987517097        5.5896099629       18.5115027630
  C         2.8319444309        7.7631045318       17.4416846406
  H         3.2129764499        9.9584998451       16.9866608239
  H         0.5110537194        8.4256437646       28.2358859616
  H         0.0016754325        8.5118481207       29.8479135115
  C         1.4848394130       10.0906342788       29.2865139053
  H        -2.1288338154        8.3982852260       27.4047216882
  H        -2.5601355025        8.6962241708       29.1153610787
  C        -3.4547045394        9.8899563423       27.5950404029
  H        -1.8754649700       11.0090242260       31.0905905672
  C        -1.9757940513       13.8887694967       31.6419488400
  H         4.7946345605       13.5222614372       20.6908730769
  H         5.6039689202       12.1940829473       21.4764730527
  C         6.7525698419       13.2463784777       20.0564376814
  C         3.2572612365        7.1048124025       16.2658389929
  H         1.8639575537       10.6279561111       28.4239091692
  H         1.1933237611       10.9091704343       29.9413679647
  C         2.6216645324        9.2956482162       29.8431568478
  H        -3.1516663830       10.5063105548       26.6852618262
  H        -3.8203424244       10.6374521107       28.2862479106
  C        -4.7328163546        9.0673402079       27.2240074089
  C        -1.9429801358       15.2986817859       31.7397878976
  C        -2.2008791483       13.1377103045       32.9481366891
  H         6.2818608246       13.0172915313       19.0363629793
  H         7.1251176092       14.2446627932       19.8594266723
  C         7.8901093353       12.2268052902       20.3007198823
  H         3.2277298883        6.0238209537       16.3616106158
  C         3.5234452060        7.4371044880       14.9525395134
  H         2.9265992666        8.6643375699       29.0208012645
  H         2.3318375998        8.6676624341       30.6827359531
  C         3.7885493352       10.1355661711       30.2629129970
  H        -4.4309611328        8.1535088094       26.6723202940
  H        -5.1329811536        8.8317749754       28.1780158812
  C        -5.6852194289       10.0867249973       26.4191153736
  N        -1.6350711011       16.2026953309       30.7298512630
  C        -2.3721751797       15.9730283650       32.8919945417
  C        -2.4205776968       13.8055325495       34.1395751117
  H        -1.9921397966       12.0495454570       32.9546434980
  H         7.4504461175       11.2677896243       20.4213839342
  H         8.6660934396       12.3015106758       19.5085212405
  H         8.4359558479       12.4601393340       21.2047375879
  S         3.4801942293        9.0229244356       14.3229348722
  C         3.7390664805        6.3759138460       13.9238581278
  H         3.8876365197       10.8897522995       29.5508288090
  H         3.6581187367       10.7467767579       31.1490372366
  C         5.0594194059        9.3003078927       30.3036922681
  H        -5.1188138539       10.5550802652       25.6122381148
  H        -6.0980894655       10.8522523116       27.0468987386
  C        -6.8603024305        9.2697002242       25.8429723420
  S        -1.8971502527       17.7310577042       31.2648628504
  N        -2.5627979320       17.3575313162       32.6955032114
  C        -2.5359087220       15.3099272389       34.1091512496
  H        -2.4201619746       13.1708787526       35.0402105839
  C         3.8409949889        8.2928154256       12.7947075699
  N         3.9634088693        6.9251191199       12.7620790454
  O         3.8564309794        5.1692383457       14.1728110688
  H         5.8920349564       10.0201118424       30.4912890448
  H         5.2347544890        8.9002599674       29.4021980032
  C         5.0646720236        8.2216783882       31.4039217235
  H        -6.4264329050        8.5198915247       25.1351982505
  H        -7.4291624445        8.6626511163       26.5558537660
  C        -7.8194482405       10.2478119970       25.0515463572
  C        -2.8555467589       16.0469085072       35.2498218902
  S         4.1743913256        9.2418025749       11.3745556802
  C         4.0593938014        6.1724141341       11.5436302307
  H         5.9112770611        8.2846260809       32.0218409809
  H         4.1984952324        8.5077838318       31.9178704377
  C         5.0569597166        6.7868957266       30.7758609791
  H        -7.5429541967       10.6592879427       24.1752659083
  H        -7.9860251370       11.1487985196       25.6390776296
  C        -9.1780120662        9.6544429183       24.8158794790
  H        -2.6357231932       17.0993771639       35.2407128951
  C        -3.4280769693       15.7040540669       36.4469722033
  H         4.7307902212        6.5928299181       10.8317262671
  H         4.4922296251        5.2419086954       11.7603193042
  C         2.6803174496        6.0313197742       10.8309153468
  H         4.4292186818        6.5866550605       29.8398309864
  H         4.6956309587        6.1318232229       31.6177088803
  C         6.4242623480        6.3695853282       30.3584398101
  H        -9.5962488102       10.0124388256       23.9066949581
  H        -9.0280967942        8.6024863573       24.5931068967
  C       -10.0830178363        9.7194506133       26.0338357923
  S        -3.9293808795       14.1093567226       36.8711679731
  C        -3.6082610305       16.7292862129       37.4537219408
  H         1.8681437375        5.9982044107       11.5503102823
  H         2.6031409870        6.8770089624       10.2078181872
  H         2.5078979656        5.1381166703       10.2354921733
  H         6.2858091668        5.4955896133       29.7847947324
  H         7.1001434233        6.2572378854       31.1937655864
  H         6.9775067129        7.0880732252       29.7504127702
  H        -9.7213254927        9.0263509232       26.7695814527
  H       -11.0550096091        9.3202093006       25.7552751244
  H       -10.1029057856       10.7375715630       26.4457138882
  C        -4.4355169494       14.7853780473       38.3969716071
  N        -4.3189357523       16.1172091616       38.4518646752
  O        -3.3567483151       17.8722502985       37.3134549731
  S        -5.0998472431       13.9770802948       39.8102558684
  C        -4.5620979204       16.8623504599       39.6311638956
  H        -4.7704841203       17.8668492122       39.4065096060
  H        -5.3855246578       16.4629933415       40.1329640503
  C        -3.1956213347       16.9123205517       40.4495599886
  H        -3.1966589763       17.1442420905       41.4856754992
  H        -2.6070503343       15.9598776439       40.3627225128
  H        -2.4743577599       17.7183248328       40.1063894095
  H         7.6636393329       11.3250026269        3.2085149071
  C         8.1193446811       10.3766576378        3.6162732813
  H         7.3283489615        9.5992320462        3.6851574542
  C         8.8621228129       10.5915639647        4.9330722245
  C         9.0749799702       10.0126678325        2.5368596879
  C         8.0017692330       10.7262367815        6.2325595338
  H         9.6042537066        9.7505195329        5.0964618798
  H         9.5220650537       11.4389022668        4.8459724813
  H        10.0510121601       10.3690493355        2.8880829687
  H         8.7766798893       10.4932143550        1.6378557521
  H         8.9178027686        8.9696809147        2.4469495356
  C         7.3110762076        9.3426343719        6.4786215137
  H         8.6228188831       11.0178761810        7.0844160578
  H         7.2410799744       11.4979778205        6.0919429976
  C         6.5371641943        9.4034807912        7.8040382068
  H         8.0936509599        8.5580102269        6.4329365007
  H         6.6273496665        9.0488424280        5.6795532036
  C         5.1800127883       10.1484734630        7.8570529552
  H         7.2492303738        9.7580859365        8.5558314699
  H         6.4182026912        8.3350848088        8.0977075325
  C         3.9279362179        9.3585111484        7.4629728025
  H         4.9719792890       10.5696529559        8.8464227859
  H         5.2888658449       11.0281032083        7.2153165902
  C         2.6614714225       10.2636882648        7.1884813907
  H         3.7132791715        8.6116857819        8.1958391688
  H         4.1661394939        8.7815816928        6.6292016138
  C         2.9958416989       11.6951474780        6.6129222088
  C         2.0474881049       10.9765482489        8.3736861513
  C         1.4940802483        9.5980181149        6.4358588148
  C         2.5768641882       12.8083745099        7.2926475275
  C         3.8496929815       12.1207599607        5.5216798846
  C         1.9817248817       12.3289817198        8.4562102354
  C         1.5466688898       10.3012455526        9.4965803511
  H         2.0433423676        9.0520617410        5.7041520257
  H         1.1043743812        8.8310856852        7.0454880943
  C         0.4873519512       10.4405165507        5.7333994420
  S         2.9728005590       14.3118579950        6.5769834587
  C         3.7633599155       13.4623591865        5.2500691186
  H         4.3827649684       11.3271182253        4.9481103470
  C         1.5444703582       12.9146064255        9.6553643989
  H         1.5858851198        9.2382626808        9.3614775380
  C         1.1891674936       10.8674932252       10.6579852761
  H         0.9620884957       11.0422100179        4.9591165002
  H         0.0144179292       11.0496611215        6.5113525244
  C        -0.6092411818        9.5959042987        5.0803520668
  C         4.2237896105       14.1540513081        4.0024638827
  C         1.1953574377       12.2329574472       10.8190508444
  H         1.6284992550       13.9486613968        9.7053705488
  C         0.8119975556       10.3970588623       11.9044086948
  H        -1.4370896643        9.4865109287        5.7727740567
  H        -0.3030428636        8.5724094889        4.7597031518
  C        -1.0076836566       10.3651390499        3.7584768820
  C         4.0383402977       15.5614687545        3.7177432564
  C         4.7938691174       13.3286197848        2.9326755395
  C         0.9134910303       12.8399294320       12.0757715489
  C         0.5695837765       11.4709378485       12.7294522638
  S         0.5785779080        8.8214525223       12.5886247294
  H        -0.1144544886       10.6689802076        3.2619591250
  H        -1.5772030369       11.2749698203        4.1403545702
  C        -1.8040374875        9.5200635647        2.7458258881
  N         3.5503041166       16.5020176762        4.6016037004
  C         4.4615082961       16.1123575720        2.5157754451
  C         4.9955832733       13.8114104076        1.6499039244
  H         4.8743297927       12.2855389703        3.0723022474
  C        -0.2750262348       13.7684138649       12.0473049179
  C         2.1300558441       13.5411798396       12.7482235317
  C         0.0339839458       11.0470035211       13.9627666048
  C         0.0298602011        9.7015464554       14.0742003138
  H        -2.3402823178        8.6683935358        3.1987482226
  H        -2.6540891500       10.0928862357        2.3446171822
  C        -0.9352629429        9.1577734039        1.5069982022
  S         3.6155207248       17.9601078207        3.8703354421
  N         4.2948821523       17.5545329962        2.4809170006
  C         4.8608558403       15.2821171350        1.3938066715
  H         5.3876201210       13.1724046092        0.8920700359
  H         0.0753483522       14.7633513468       11.9012951945
  H        -0.6677713622       13.8545294493       13.0421732060
  C        -1.3625352331       13.3442475830       11.0399548903
  H         2.7237963173       14.1633256786       12.0719775476
  H         1.7655709585       14.2426406105       13.4392218708
  C         3.2072732554       12.6543856315       13.5002116685
  H        -0.0439088945       11.7796971053       14.7166084637
  C        -0.0838365037        8.9112242822       15.3430597736
  H        -1.5074618616        8.3792360465        1.0268241556
  H        -0.0127752360        8.7993883631        1.8780012081
  C        -0.6647180452       10.2793431404        0.5351487452
  C         5.1602980179       15.9715520749        0.1770599311
  H        -1.2780898425       13.9285023320       10.1096885353
  H        -1.4000870954       12.3280217672       10.6770561371
  C        -2.8087384453       13.5357923214       11.4537624365
  H         3.6591754413       11.9806429430       12.8364994635
  H         2.6958384267       12.1819498679       14.3141763499
  C         4.2493619073       13.6830744170       13.9771668119
  C        -0.1039824643        7.5209555026       15.4316139378
  C        -0.2591983465        9.6170090688       16.5932527419
  H        -1.5324559137       10.9920816932        0.6529277728
  H         0.1890304025       10.7975580924        0.7866445823
  C        -0.6035197803        9.8948823151       -0.9927958483
  H         4.9560059420       16.9995338295        0.2973852546
  C         5.5715268108       15.5051933401       -1.0659104465
  H        -2.9709693582       14.4656890701       11.9238815846
  H        -2.9853335017       12.7395106047       12.1779745374
  C        -3.7843020826       13.3099398398       10.2833255244
  H         4.8919791364       13.9054224845       13.1472817056
  H         3.8647080692       14.6254407458       14.3750271670
  C         5.3031348144       13.1924064054       14.9500169381
  N         0.1050608327        6.6294128829       14.3591605911
  C        -0.3766951150        6.7925824168       16.6226845446
  C        -0.4746326324        8.8726179355       17.7748891722
  H        -0.1502492246       10.6950542597       16.6893878174
  H        -0.4462983991       10.6894764038       -1.6526474332
  H        -1.5006368361        9.3263977131       -1.3319053652
  H         0.2793962787        9.2312318983       -1.1568128081
  S         5.8461650766       13.8461424033       -1.5659748473
  C         5.6537631777       16.5471679984       -2.0843402204
  H        -3.6619195693       14.0612793566        9.5122505233
  H        -3.8230813195       12.3380278089        9.8441575683
  C        -5.2924308833       13.5473113540       10.7525714575
  H         5.6770801196       12.4122294016       14.3516169663
  H         5.0200610869       12.7561024841       15.9681592872
  C         6.5022396055       14.1914852923       15.1891177601
  S         0.1623537174        5.1304106944       14.9621683249
  N        -0.4059243781        5.3902346259       16.4661076565
  C        -0.6098375463        7.3784937650       17.8687406829
  H        -0.6667873065        9.4907544877       18.6352991534
  C         6.0960134815       14.5829417740       -3.1762773751
  N         6.0487032083       15.9374682305       -3.2295073694
  O         5.5542193479       17.7403860144       -1.9106803081
  H        -5.4388146634       13.1884354496       11.7581326834
  H        -5.4654636686       14.5656312589       10.7018481075
  C        -6.2187863590       12.7189320774        9.8909930862
  H         7.1062122869       13.7947179673       16.0453052561
  H         7.1961502593       14.3185113816       14.4134105060
  C         6.1429257056       15.6734897500       15.4561305702
  C        -0.9293921663        6.5852431281       19.0475208963
  S         6.3373400389       13.6901222582       -4.6607673484
  C         6.2216842298       16.6260353894       -4.5100958154
  H        -5.7313912689       12.3632496033        9.0175468722
  H        -6.4965545442       11.8775782583       10.4371683524
  C        -7.5580910353       13.4374212483        9.5321497915
  H         5.6616204899       15.7856787332       16.4516357190
  H         5.4288660688       16.0439085330       14.7282447550
  C         7.3688766186       16.5483231863       15.3851703313
  H        -0.6992684549        5.5772140073       18.9128040249
  C        -1.4338899553        6.9291129450       20.2766173616
  H         7.0819513080       16.2650411938       -5.0797539708
  H         6.4962262807       17.6242473041       -4.2116168199
  C         5.0003325358       16.5647776196       -5.2822260012
  H        -7.7966139869       13.0425734339        8.5066554812
  H        -7.4047919600       14.5882199039        9.3460816288
  C        -8.6472146941       13.3182234589       10.6000894748
  H         7.1585469211       17.5450289651       15.7635842609
  H         8.2400214552       16.1490513048       15.9142799382
  C         7.7079270118       16.8273316652       13.9752973114
  S        -1.9808794084        8.4101219463       20.7139782380
  C        -1.6303406755        5.8539001281       21.2736176401
  H         4.4647426394       15.8031092508       -4.9167768123
  H         5.1602757558       16.3342395580       -6.3375415608
  H         4.3544855138       17.4598242563       -5.2370530916
  H        -8.3129692954       13.4146117708       11.6520718609
  H        -9.4214887186       14.0726116813       10.5022899813
  H        -9.1907887816       12.3737207487       10.4694839904
  H         8.6350183302       16.2489217830       13.7555510962
  H         6.8565101012       16.7112244089       13.2570054721
  H         7.8828081499       17.8632184472       13.7212870561
  C        -2.2749700538        7.7600690883       22.3065488943
  N        -2.2373333947        6.3716247355       22.3600774035
  O        -1.2440809288        4.7063326419       21.1505452843
  S        -3.0581071256        8.5348696659       23.7046120944
  C        -2.5355408796        5.5632098064       23.5237061036
  H        -2.8476977961        4.6596740390       23.0679211387
  H        -3.4465600364        5.8249733633       24.0461186162
  C        -1.3210537348        5.5186718564       24.3600182952
  H        -0.3780245718        5.6280208543       23.7798518655
  H        -1.1274550525        4.5807649890       24.9601895853
  H        -1.2969407856        6.3671186250       25.0945205443
