352
i =
  H        -2.8647038477       14.9402311966       17.0055853352
  C        -2.7611047729       13.8745157731       17.0438583964
  H        -3.6869603915       13.4179373503       17.4572704746
  C        -1.4910079224       13.4852460990       17.8235599880
  C        -2.7336547945       13.3537198386       15.5493811798
  C        -1.5275609766       13.9485664611       19.2759093956
  H        -1.2696173587       12.4019359754       17.6987254473
  H        -0.6992878451       13.9268459512       17.2143587984
  H        -2.0219915964       12.5265958900       15.2827813207
  H        -3.7549634250       13.0703231995       15.3180910206
  H        -2.5203725799       14.1645864931       14.8589504231
  C        -2.6828115065       13.2659966581       20.0381140421
  H        -1.7074064250       14.9796722797       19.3437867142
  H        -0.4951011544       13.8510438264       19.7303495637
  C        -2.5203447660       13.2661053903       21.6069546308
  H        -3.6368181190       13.6447474464       19.7873023797
  H        -2.5724846304       12.2030870548       19.7203503234
  C        -1.3102015952       12.5402343757       22.1254089401
  H        -3.4117959269       12.8463765670       22.1298277765
  H        -2.5312071221       14.3369178189       21.9791885970
  C        -0.2685786500       13.4763858093       22.7241967744
  H        -1.7322979836       11.8869401335       22.8855423412
  H        -0.9146458444       11.8820372025       21.3652927270
  C         0.9078032137       12.7520603928       23.4317506918
  H         0.2443598927       14.0625349997       21.9590704131
  H        -0.8203277080       14.2502881275       23.2651438259
  C         1.3088350879       11.4671293103       22.7513701959
  C         0.4852289753       12.0634943769       24.6187159547
  C         2.2412881985       13.6421213111       23.6479373949
  C         1.0614335467       10.3533087893       23.5222812840
  C         1.8502702001       11.1583019234       21.5102759923
  C         0.5525676929       10.7163687963       24.6928364556
  C         0.0836243115       12.7441191150       25.7543374130
  H         2.6308052586       14.1270606115       22.7398651116
  H         2.0217221399       14.4244885739       24.3782070038
  C         3.5280033223       13.0131488802       24.2446020368
  S         1.5554296725        8.9155604672       22.7560191151
  C         1.9881553498        9.8382907653       21.3033846909
  H         2.0071464048       12.0110128226       20.8292160566
  C         0.2071167176       10.0962151957       25.8246230590
  H         0.0154472737       13.8640484616       25.7162026508
  C        -0.2822690462       12.0435340302       26.9244062376
  H         3.8577865926       12.2097842318       23.5775122174
  H         3.3760976006       12.6331722635       25.2018208064
  C         4.7553980816       13.9643348825       24.4154851638
  C         2.4661853515        9.2335921322       19.9985170012
  C        -0.2672870759       10.6909926364       26.9903921049
  H         0.3143964718        9.0632473577       25.7903590821
  C        -0.6983561664       12.4676455470       28.1191218389
  H         5.5862225944       13.3361697989       24.7605568902
  H         4.4673371562       14.6596625618       25.2609114878
  C         5.2328087773       14.7516666513       23.1270400218
  C         2.4358765213        7.8218316263       19.7027532852
  C         2.7622528959       10.1293731960       18.8112823836
  C        -0.6732091971       10.0738092807       28.2845094799
  C        -0.9808821607       11.4356353815       28.9488517099
  S        -0.8881800668       14.0338742774       28.8184147027
  H         5.8136331924       15.5956185281       23.5751932574
  H         4.3863531125       15.2446896803       22.6116144876
  C         5.8858413932       13.7782888895       22.2097893713
  N         1.9782145801        6.7865182659       20.5871542667
  C         2.6919275071        7.3247663249       18.4635715845
  C         3.0223498267        9.6050400887       17.5611771099
  H         2.7183110113       11.1544110346       18.9080791236
  C         0.4240278064        9.3086113752       28.9788973106
  C        -2.0280112604        9.2414546648       28.1983078200
  C        -1.4040735235       11.8813075105       30.1933613842
  C        -1.1849804750       13.2585311487       30.2494422184
  H         6.9549893434       13.9913790218       22.0148110177
  H         5.8128904591       12.7618138804       22.6535046373
  C         5.1364853626       13.8160914722       20.8476222574
  S         2.1425880396        5.3759588480       19.8893293720
  N         2.6280350251        5.8953478662       18.4071404858
  C         2.9040858433        8.1270378346       17.3181489155
  H         3.2276634100       10.2990318749       16.7689321073
  H         0.6735044307        8.5329187839       28.2569837766
  H        -0.0230633736        8.7268025493       29.7746883494
  C         1.6324759425       10.1170121626       29.3470107705
  H        -1.8289096680        8.3296962450       27.5956525198
  H        -2.3015607095        8.9543251670       29.1667413521
  C        -3.1598543543       10.0592206502       27.5887277059
  H        -1.7404418116       11.1621987289       30.9414025050
  C        -1.5006702919       14.0866527196       31.5192756468
  H         5.1482290823       14.9116552645       20.4958090410
  H         4.0956726936       13.4975750914       21.0121179499
  C         5.8512638419       13.0384052210       19.7915134464
  C         3.1554047535        7.3861056624       16.0702736976
  H         2.1639603346       10.5833410366       28.5316501960
  H         1.4321450742       10.9545654758       30.0652368034
  C         2.6502110570        9.1671948310       29.9042262353
  H        -2.8443203120       10.6738299595       26.7700530525
  H        -3.4663755824       10.5945062924       28.4485044579
  C        -4.3654739779        9.2662864561       27.0816196174
  C        -1.5914573331       15.4756887304       31.6591060535
  C        -1.7882291038       13.3642777518       32.7967536323
  H         6.3810841410       12.2157706118       20.2806237717
  H         5.1869072461       12.6321498290       18.9906817628
  C         7.0348228178       13.7450397439       19.1990591949
  H         2.7326996714        6.4075382414       16.0535473085
  C         3.4989218896        7.8352274898       14.8162083524
  H         2.9259367345        8.5675580693       29.0519395755
  H         2.2204124032        8.5481502282       30.6667617133
  C         4.0075939390        9.9001651836       30.2967157688
  H        -4.1244037567        8.6542282630       26.2046557341
  H        -4.7332138769        8.4646680512       27.7766633529
  C        -5.4191838365       10.2042305972       26.5871625456
  N        -1.3793072946       16.2948196686       30.6348126013
  C        -1.8940579880       16.1546213305       32.8235801352
  C        -2.1680504353       13.9782164611       33.9204187821
  H        -1.6653168335       12.3079341998       32.9347045425
  H         6.6561987660       14.6748796103       18.7829265793
  H         7.9090781769       14.0246935905       19.8453082033
  H         7.4728220098       13.1261577194       18.3973580359
  S         4.0143211731        9.4296567855       14.2705551350
  C         3.4434910092        6.8477308901       13.6694518563
  H         4.3167160832       10.5449974560       29.4773390543
  H         3.7893046628       10.5386828170       31.1754649463
  C         5.1427336182        8.8956271095       30.6223470190
  H        -4.8837421988       10.7564870797       25.8766604372
  H        -5.7250780020       10.7767698366       27.4610178998
  C        -6.5088776222        9.3896963403       25.8246846475
  S        -1.3900867868       17.8246102496       31.1094536656
  N        -1.8258596750       17.5406426097       32.6719631085
  C        -2.1968705884       15.4789186503       34.0008062892
  H        -2.2491933046       13.3540487794       34.7548566479
  C         4.1952559979        8.7425957578       12.7145678927
  N         3.8199116493        7.4690885855       12.5577500332
  O         2.9588381049        5.6483273482       13.8061749085
  H         5.6952611712        9.1158004415       31.5171532447
  H         5.8605508290        9.0329999321       29.7863981990
  C         4.7266148176        7.3979282455       30.7254924573
  H        -6.0722348791        8.9529875019       24.8872573128
  H        -7.0667303652        8.5583985688       26.3942364024
  C        -7.4954037802       10.5205444494       25.2842196588
  C        -2.5747154072       16.2164885016       35.1394981801
  S         4.5208648465        9.7726821064       11.3221997148
  C         3.7660221261        6.8831369842       11.1942533985
  H         3.8413979281        7.1565626692       31.2047994030
  H         4.6280810294        7.1826773271       29.6887491870
  C         5.8805081140        6.5957027072       31.3548702583
  H        -7.0119954500       11.0742856758       24.5157989696
  H        -7.7778062638       11.2556149851       26.0942626192
  C        -8.7491994691        9.8695094469       24.6962375697
  H        -2.2173280049       17.1997605485       35.1700693013
  C        -3.1396371666       15.7782493221       36.3570189412
  H         4.6397376286        7.1856614040       10.5906211549
  H         3.8285778929        5.8162200321       11.3455513511
  C         2.3548582651        7.0825768548       10.5239816653
  H         5.4729481398        5.7881826645       31.8530037126
  H         6.2760871429        7.1567974867       32.2003832114
  C         6.9173986981        6.0760601422       30.3870100138
  H        -8.8627375349       10.4667096005       23.7759703040
  H        -8.6923614887        8.7482799825       24.5762895880
  C        -9.9447945699        9.8548995863       25.6438157343
  S        -3.6485521047       14.1509889720       36.6166401537
  C        -3.1646196295       16.7425055791       37.4658547664
  H         1.5037213633        7.5804578227       11.0454350082
  H         2.4089715376        7.5849086163        9.5518955765
  H         1.8604571624        6.1377516236       10.3738371326
  H         7.1102651148        4.9750283897       30.4218094414
  H         7.8932861134        6.4214152788       30.6360813860
  H         6.6304090964        6.3633979518       29.3152255670
  H       -10.8577439172        9.5142534036       25.1300916663
  H       -10.2533037690       10.8686375341       25.9332218478
  H        -9.8632631261        9.4907405835       26.6115088148
  C        -3.9175302313       14.7673763749       38.1897457214
  N        -3.8579104253       16.0698794550       38.3847634146
  O        -2.9827753934       17.9528190064       37.4546196644
  S        -4.8746148939       13.8185133551       39.3133304859
  C        -4.0871568883       16.7527614290       39.6804589456
  H        -4.3362897804       17.8327436605       39.5956103280
  H        -4.9418033013       16.4013808978       40.1611383015
  C        -2.8026871862       16.6609662862       40.4855426076
  H        -1.9176312999       16.9978846263       39.9130010174
  H        -2.8951039537       17.1834454790       41.4381382799
  H        -2.6673148539       15.5931806425       40.5524686005
  H         7.1601969502       11.5454487083        3.1318124962
  C         7.7278909251       10.5653569851        3.3568380036
  H         6.9041618273        9.7787907741        3.4938521024
  C         8.7805110455       10.5863467042        4.5337956452
  C         8.3709340853       10.1970883018        2.0522585135
  C         8.2192085435       10.7179034443        5.9469899922
  H         9.3678198701        9.7014227357        4.5130183311
  H         9.4026712521       11.4995266191        4.2852494330
  H         7.7067566443       10.5486547338        1.3491388849
  H         8.5000324642        9.1341001730        1.9790257718
  H         9.3212686790       10.7142411697        1.8261157723
  C         7.6000918647        9.3857550995        6.5106415558
  H         9.0154678320       10.9966736049        6.6443101938
  H         7.5328780571       11.5821454591        5.9733452277
  C         6.7807535206        9.5139263282        7.8040275398
  H         8.3401286094        8.6677861907        6.7412466095
  H         6.9175058886        8.9006300860        5.7540474432
  C         5.5818646959       10.5441436571        7.7538663981
  H         7.4085219458        9.9187563408        8.5725119629
  H         6.4752764782        8.4805048084        8.2380350133
  C         4.2601204238        9.8310415352        7.3459488238
  H         5.3228578217       11.0048191853        8.7082362092
  H         5.9005325887       11.2839870797        7.0472629320
  C         2.9851415566       10.7586181211        7.2635434510
  H         4.2287332490        9.0350939213        8.0786269114
  H         4.3934990990        9.2480415585        6.3962553795
  C         3.3319277855       12.1286166766        6.6662851789
  C         2.5284604142       11.4261756341        8.5048398769
  C         1.8895399387       10.1332147435        6.3904286889
  C         3.0769249877       13.2090387549        7.4636617387
  C         3.6210162142       12.5394956217        5.3474343079
  C         2.5777161962       12.7774318355        8.6707273130
  C         2.0017357055       10.7754359892        9.6214810935
  H         2.2134897716       10.1848539420        5.3695160435
  H         1.7785546025        9.1026606110        6.6649580845
  C         0.4805283220       10.7492706075        6.2790135525
  S         3.2707744858       14.7625339967        6.6904576696
  C         3.7398776219       13.8864129623        5.2496863296
  H         3.7679370419       11.7329071008        4.6372067007
  C         2.2456529308       13.3711405463        9.8113846539
  H         2.0042022101        9.7034864017        9.5252966133
  C         1.5644628809       11.3580544870       10.7645053592
  H         0.4750682532       11.7620081632        6.0278491153
  H         0.0814997626       10.7908850071        7.2617059929
  C        -0.5326281223       10.0991838508        5.3689138184
  C         4.1381982844       14.5549940062        3.9336170928
  C         1.6325624021       12.7192930988       10.9324556456
  H         2.3760452378       14.4478003696        9.8439620169
  C         1.0797479921       10.9897829004       11.9601480676
  H        -1.4161192152       10.6693194259        5.3193399666
  H        -0.8069184810        9.1354856649        5.6752383433
  C         0.0460169011        9.9026643042        3.9902403507
  C         4.1233387142       15.8902347455        3.6210053314
  C         4.5550605510       13.6744052886        2.7909042134
  C         1.0858093243       13.3996310005       12.1846890473
  C         0.7714516849       12.0303234800       12.8105729630
  S         0.8055388395        9.4728825052       12.7356359060
  H         0.7838507664        9.1219663849        3.8738904031
  H         0.5368251650       10.8669934083        3.6865354169
  C        -1.1021027500        9.5793891599        2.8952667958
  N         3.9500145100       16.9253557980        4.5374461961
  C         4.5249066110       16.3526478164        2.3579613647
  C         4.8141875723       14.0874109040        1.5113341856
  H         4.7221064478       12.6326752072        3.0861174023
  C        -0.2168650271       14.2694776658       11.7987504361
  C         2.3201707073       14.1664576677       12.8099773040
  C         0.3800127384       11.6127674155       14.0433804198
  C         0.3420909096       10.2519111458       14.1648497607
  H        -1.3079350561        8.5104927927        2.8406719587
  H        -2.0203600089       10.1158209550        3.0848691422
  C        -0.5062596548        9.8496337785        1.5042322983
  S         3.9711869337       18.3859228505        3.7364162299
  N         4.5107248620       17.7971226535        2.3338641888
  C         4.8886430337       15.5366493183        1.2327531168
  H         5.1365526504       13.3880818099        0.7606989702
  H         0.0703427199       15.1771987485       11.2696497559
  H        -0.5772785968       14.6406924939       12.7568330569
  C        -1.3105525893       13.4804113320       11.1409683982
  H         2.7120497214       14.9234884761       12.1689322042
  H         2.0306102998       14.7822629634       13.6894625151
  C         3.4901184928       13.3278447111       13.2917871969
  H         0.1631648865       12.2909751451       14.8558703977
  C        -0.0600892790        9.4272080705       15.3957488873
  H         0.1736352994        9.0280214204        1.2880312308
  H         0.0694948163       10.7526620011        1.4188596838
  C        -1.6061028195        9.7368426804        0.4655752809
  C         5.1165282067       16.1161103122       -0.0531745413
  H        -1.0611846715       13.1173221896       10.1502769189
  H        -1.5195132120       12.5838475189       11.7252178085
  C        -2.6547555489       14.1519330201       11.0454913843
  H         4.0447280849       12.8541172420       12.4728284221
  H         3.1108357389       12.6036043370       14.0100551533
  C         4.5366309524       14.2154584523       13.9227426075
  C        -0.1497521778        8.0070329044       15.4958464891
  C        -0.1369958740       10.0823381770       16.7413677738
  H        -2.0471770466        8.7620915714        0.6026432534
  H        -2.3774292560       10.5227257092        0.5783836666
  C        -0.9735174233        9.8239173848       -0.9065868386
  H         4.8952592754       17.2193881055       -0.0899754736
  C         5.4368507072       15.5581616245       -1.3057046995
  H        -2.7206191569       14.8992431232       10.3052331316
  H        -2.9234511423       14.6262345918       11.9935896406
  C        -3.7515809761       13.1265894881       10.7130239880
  H         4.7353545981       14.9590254244       13.1415733291
  H         3.9402006009       14.7513017389       14.7511281185
  C         5.7398678363       13.5201239950       14.4929312714
  N        -0.0057250971        7.1479342305       14.3832261863
  C        -0.4353753039        7.2952687047       16.6080331953
  C        -0.4192511985        9.3452957847       17.8729444026
  H         0.1366550059       11.1202895632       16.7502064226
  H        -0.0909177257        9.1606242548       -1.0676122575
  H        -0.5482365092       10.8051995082       -1.1672662637
  H        -1.7089553465        9.6616305802       -1.7801149059
  S         5.7662177007       13.8872427029       -1.6793567743
  C         5.5382026230       16.4575258470       -2.4171797653
  H        -3.4006205898       12.4305062139        9.9397759451
  H        -3.9241371613       12.5343006926       11.5900339309
  C        -5.0669621578       13.7508632175       10.1167035577
  H         6.3484113445       13.2643669676       13.7034213753
  H         5.4552139885       12.6071553701       14.9289314768
  C         6.6062532081       14.3314685101       15.4473205158
  S        -0.0131286577        5.6413029208       14.9283725361
  N        -0.2575897464        5.9537890975       16.4718217926
  C        -0.6658052770        7.8725305835       17.8647152941
  H        -0.5665818456        9.9391397180       18.7486002786
  C         6.0364789750       14.4664557571       -3.2976453080
  N         6.0104168170       15.8046096582       -3.4736823743
  O         5.3928171024       17.6859049095       -2.2997714981
  H        -5.6313341898       14.0040461037       11.0924548167
  H        -4.9569018499       14.7166369506        9.6469462878
  C        -5.8440599707       12.8137438303        9.2464589532
  H         6.2613255257       14.2636905469       16.4570528398
  H         7.6078846559       14.0045310629       15.3969665459
  C         6.6182051711       15.8213367492       15.0069269049
  C        -1.0508685966        7.1027057313       18.9902002435
  S         6.4382540262       13.4585305218       -4.6969437193
  C         6.1012102529       16.4935381862       -4.7269135026
  H        -5.2363264240       12.1917331934        8.5361283113
  H        -6.2379135853       12.0925345409       10.0228091240
  C        -7.0446459441       13.5890221929        8.6958826784
  H         5.7323985271       16.3584085318       15.3093930006
  H         6.8519586119       16.0891263397       13.9434707487
  C         7.6295533326       16.6736419226       15.7874941686
  H        -0.6281737084        6.1183199403       18.9389917596
  C        -1.4514919735        7.4414682592       20.2295164834
  H         6.9545913229       16.2104223149       -5.3845121100
  H         6.2331757873       17.5183837981       -4.5301340390
  C         4.6822222083       16.4938116540       -5.3946640346
  H        -7.5172574782       13.0058000836        7.8769284700
  H        -6.7963165216       14.5426971789        8.2540385094
  C        -8.1500887872       13.7520722895        9.7170713372
  H         7.3735966345       16.5183404338       16.8442065087
  H         8.6965322252       16.3738912406       15.6911254851
  C         7.7661027450       18.1696778282       15.5274018443
  S        -1.7660407217        8.9961391056       20.8000929440
  C        -1.4474391475        6.3513046842       21.2226430852
  H         4.5445696138       15.4980345738       -5.7580037903
  H         4.6411166460       17.2091133080       -6.1551703336
  H         3.9182285635       16.6796706925       -4.6742337401
  H        -7.9483563909       14.4001930982       10.5667669015
  H        -8.9110054674       14.3141562408        9.2288975754
  H        -8.5851060364       12.7948075581        9.9992764163
  H         7.6316870352       18.5753553132       14.5080184283
  H         7.0885136828       18.8178423724       16.2050242065
  H         8.7365513435       18.4272966332       15.7756485762
  C        -2.0546497167        8.2208101894       22.4122588589
  N        -1.8330445008        6.8813327565       22.4280144122
  O        -1.1929395303        5.2096713625       21.0175075757
  S        -2.8085863145        8.8935941651       23.7948414141
  C        -1.9424990551        5.9940167629       23.5984446820
  H        -1.7589992267        4.9523199820       23.2271663184
  H        -2.9376108571        6.0430394447       23.9954020885
  C        -0.8654835769        6.3735529421       24.6382960070
  H        -1.1024830430        7.0430857258       25.5434883413
  H         0.0347941533        6.8087331665       24.2904080947
  H        -0.5548260823        5.4847800585       25.1300570081
