352
i =
  H        -3.7345329610       14.1396081989       16.2542258183
  C        -3.2181206376       13.1381247893       16.2779096289
  H        -3.9223714103       12.3203780759       16.3401176713
  C        -2.1250810836       13.0832700143       17.3602330461
  C        -2.7149934703       12.8562688059       14.8704083447
  C        -2.7033970937       13.1660313877       18.7570989348
  H        -1.4979978350       12.1431786221       17.2706171964
  H        -1.4709584707       13.9277792104       17.2271330157
  H        -2.6286487569       11.8392459796       14.6031827003
  H        -3.5231889019       13.3026648220       14.2166267942
  H        -1.8885593717       13.4651735037       14.7344047658
  C        -1.8082907537       12.6221742777       19.8257112638
  H        -3.7072882386       12.6459413202       18.7760531936
  H        -2.8301978245       14.2252108585       18.9709229148
  C        -2.2914515923       13.0736729153       21.1945730509
  H        -1.8878267043       11.4976945682       19.7173407269
  H        -0.7560962281       12.9153778060       19.5758100487
  C        -1.2415196053       12.5436789367       22.2686428849
  H        -3.3453574780       12.8356105282       21.3333738114
  H        -2.2303884449       14.1294743393       21.2571592285
  C        -0.0809722846       13.5725307623       22.5102792908
  H        -1.7525651565       12.3433277064       23.2304293703
  H        -0.8097371280       11.5731607798       21.8933574826
  C         1.2034369477       12.8970200611       23.1015942352
  H         0.2637882529       13.9962900010       21.5878463426
  H        -0.4147567691       14.3632850290       23.2061623715
  C         1.6707730856       11.5551491113       22.5044724831
  C         0.8394619960       12.2349368438       24.4219666460
  C         2.4011065270       13.8724125809       23.1516424091
  C         1.4960840071       10.4945015421       23.3144457787
  C         2.0685964624       11.1581493650       21.1779805697
  C         1.0357879716       10.9006241805       24.5302591268
  C         0.3152350730       12.7545142988       25.5392331381
  H         2.5079474284       14.3542068939       22.1057920050
  H         2.0676774886       14.6761811770       23.7977025103
  C         3.7292870219       13.1667907604       23.6347131758
  S         2.0629906830        9.0215170790       22.5555746276
  C         2.2805390266        9.8280969096       21.1265334344
  H         2.1667569635       11.9274245763       20.4360163894
  C         0.6927270781       10.2170501496       25.6969573587
  H         0.2591742958       13.8022833217       25.6064812581
  C        -0.0056323930       12.0940499729       26.6776669167
  H         4.0332271629       12.3625088988       22.9447343994
  H         3.5274146710       12.5415449849       24.5101784859
  C         4.8782669772       14.0960692411       24.0892789499
  C         2.4990073645        9.1243810890       19.8437521132
  C         0.1441315905       10.7975755560       26.8069038658
  H         0.9468036388        9.1512735549       25.6760975906
  C        -0.3182183986       12.4715301505       27.9918971190
  H         5.4504355732       13.4266051018       24.7100436489
  H         4.5348538934       14.8304364358       24.8355722909
  C         5.8261150389       14.5552993715       22.9809291093
  C         2.5382769153        7.7189383361       19.6720644054
  C         3.0331114481        9.9025031493       18.7676993377
  C        -0.2287376011       10.0161193896       28.0912014536
  C        -0.4135941645       11.3738517463       28.7781010012
  S        -0.8366469922       13.9887403514       28.6641012262
  H         6.6382179892       15.0717057603       23.3964480952
  H         5.2615289393       15.1084520031       22.2644796844
  C         6.5577909417       13.4832183413       22.1555031134
  N         2.2120679213        6.7541187038       20.6589314619
  C         2.9460990253        7.1083076743       18.5211631835
  C         3.3653886490        9.3087581281       17.5509722379
  H         3.1877516783       10.9404639359       18.7673164976
  C         0.9110647263        9.1723477485       28.7726376295
  C        -1.6203298556        9.3575507058       28.1096417254
  C        -0.8611622415       11.8571288424       30.0474912407
  C        -1.0819691346       13.2157589171       30.1514200304
  H         7.3652190973       14.1272473832       21.8210894485
  H         6.8473957647       12.6074404769       22.7230308379
  C         5.7433674821       13.0349574063       20.8719690745
  S         2.1663941190        5.2992069596       19.9229394287
  N         2.8194461699        5.6963186996       18.4615293378
  C         3.2885786964        7.8450729340       17.3738649862
  H         3.8181365904        9.8800167959       16.7763182790
  H         1.3059567042        8.4142188210       28.1251235577
  H         0.6144371752        8.6537828635       29.6597633561
  C         2.1225489408        9.9880478053       29.2239669524
  H        -1.6090164081        8.4638513939       27.4412466086
  H        -1.8152583801        9.0221937238       29.0452756109
  C        -2.7662836899       10.2973504531       27.6759829787
  H        -1.1160852610       11.1436721906       30.8515074602
  C        -1.4013185576       13.9871925485       31.3689338844
  H         4.6909924130       13.4009785226       20.8490352754
  H         5.4249177742       11.9916932364       20.8161296220
  C         6.5474623325       13.4235089091       19.5864186471
  C         3.4686135119        7.1385105054       16.1663527784
  H         2.4870712763       10.5613689850       28.4128723304
  H         1.7771594162       10.6123273604       29.9869342896
  C         3.3023049084        9.1490015268       29.6874080005
  H        -2.4652953159       10.8925900997       26.8206249282
  H        -2.9880967952       10.9600183655       28.5807194901
  C        -4.0810602846        9.5288258299       27.3872450365
  C        -1.5096323437       15.4168591572       31.4317342074
  C        -1.4771372723       13.2391632894       32.6564099587
  H         6.0291925242       13.0547551080       18.6954281208
  H         6.7453058782       14.4843416315       19.5218346090
  C         7.9384639180       12.7429906304       19.5021233162
  H         3.6039188034        6.1168654281       16.2396208308
  C         3.7373945319        7.5290414753       14.8843978780
  H         3.3710842136        8.4601748654       28.8097711300
  H         2.8106639424        8.6924747074       30.5604211378
  C         4.4601021606        9.9673012429       30.0647931961
  H        -4.0126025061        8.8309732376       26.5857896416
  H        -4.3965114864        8.9325517340       28.2398576071
  C        -5.2026247422       10.4540502668       26.8646103959
  N        -1.3068986230       16.2971190548       30.3907493570
  C        -1.7913556234       16.0411294393       32.6186686434
  C        -1.8715517770       13.9485903467       33.8074551752
  H        -1.5487642794       12.1512659335       32.6635187791
  H         8.1999794631       12.6409565439       18.4380818366
  H         8.7177810194       13.2760872082       20.0139474859
  H         7.8627319502       11.7371926273       19.8361149566
  S         4.0347209847        9.1211697453       14.2664420136
  C         3.8193810656        6.4317664087       13.8932149719
  H         4.8260206691       10.6000087466       29.3015185790
  H         4.2992848786       10.6465776835       30.8993140818
  C         5.7634767966        9.1937936374       30.2663518921
  H        -4.6973717206       11.3745422581       26.4233579470
  H        -5.8081642950       10.8597461228       27.7156309807
  C        -6.1166832933        9.6922594920       25.9085144751
  S        -1.4196542827       17.8088488817       31.0477872277
  N        -1.9094450273       17.4236398576       32.5450921285
  C        -2.0268749386       15.4121186212       33.8770920651
  H        -2.1209327827       13.4344823914       34.7100418747
  C         4.2873957815        8.2928343055       12.6777326844
  N         4.1756337163        6.9332015800       12.6833661221
  O         3.6418172388        5.2520150164       14.1851656240
  H         6.5765142563        9.8790421871       30.5730470358
  H         6.1165358913        8.7358047827       29.3737704621
  C         5.5385090530        8.1782205270       31.4073445859
  H        -5.4373660390        9.4120455875       25.0897181068
  H        -6.6170481329        8.8255121762       26.4185824130
  C        -7.1510945919       10.5687787052       25.1957648297
  C        -2.5154771523       16.1832220426       34.9886758797
  S         4.8469275547        9.1307292392       11.2285764342
  C         4.1989261221        6.0875444439       11.5464203074
  H         6.3548071719        8.2635558843       32.1478395847
  H         4.6540582647        8.4055517661       31.9303974025
  C         5.5458711011        6.7036071303       30.9952325690
  H        -6.8173549890       11.0404530452       24.2959506003
  H        -7.4737669648       11.3184245809       25.7875259388
  C        -8.3427417851        9.7106362857       24.5916435964
  H        -2.4007207753       17.2408846484       34.9419335604
  C        -2.9086109020       15.8265063487       36.2522318415
  H         4.9752940309        6.3229995059       10.8676874085
  H         4.2891853636        5.0476499249       11.8105632476
  C         2.8336245282        6.1769323411       10.8922891186
  H         4.8946346944        6.6672034254       30.0581425863
  H         4.9243132026        6.1223396078       31.7000561924
  C         6.8891746541        6.0015580043       30.8760293005
  H        -8.8105013814       10.3281369529       23.8583942437
  H        -7.9090258199        8.8192374715       24.1327142952
  C        -9.4079432495        9.4915758212       25.6332823310
  S        -3.2117689881       14.2625803145       36.8734395110
  C        -3.0042656645       16.9342030225       37.2584669872
  H         2.9206296711        5.5107810121       10.0550549502
  H         1.9557174057        6.0302895928       11.6002044330
  H         2.6414875101        7.1127487757       10.3316129237
  H         7.4167681157        6.4796412623       30.1253899438
  H         6.9167997409        4.8928620529       30.6059448722
  H         7.4008887518        6.1753244851       31.8542361234
  H        -9.1383944855        8.9333668424       26.4872002926
  H       -10.2813515568        9.0203071095       25.1928839616
  H        -9.8080563070       10.4998370462       25.8771494473
  C        -3.4324064711       15.0942815345       38.4782028071
  N        -3.4996314691       16.4145955392       38.4146189384
  O        -2.8557255061       18.1689072554       37.1217719842
  S        -4.0878000416       14.3618033101       39.9600729368
  C        -3.5738833655       17.3588045110       39.5313231792
  H        -3.9693353930       18.2565643995       39.1755051803
  H        -4.2445861325       17.1027322145       40.2899444885
  C        -2.1182800216       17.4691784796       40.1441593093
  H        -1.3928333362       17.8235672082       39.3856736555
  H        -2.1137057912       17.9764872325       41.0954754519
  H        -1.6529904633       16.5379357295       40.4388392954
  H         6.8649458121       10.7056943297        3.3843553713
  C         7.5685621772        9.8822130128        3.4590883320
  H         7.0012657792        8.9803465542        3.5768893888
  C         8.6245746609       10.0544674973        4.5630217133
  C         8.3924714886        9.7222599770        2.1498590427
  C         8.0542427051       10.4743636447        5.9251205095
  H         9.1235667233        9.0917666034        4.6457340905
  H         9.4500693932       10.7278081243        4.3257883194
  H         8.7178472847       10.6556585351        1.5348579005
  H         7.6957066548        9.2694429244        1.4102181127
  H         9.2067916630        9.0263287362        2.2209757841
  C         7.4193929835        9.2861432675        6.7231214378
  H         8.7579159237       11.0298243609        6.5655478535
  H         7.3562805846       11.2802196388        5.5999269524
  C         6.8048860457        9.5979238108        8.0764861815
  H         8.2649437998        8.5628244358        6.8682899554
  H         6.7034760583        8.7996338993        6.0674402048
  C         5.5214428719       10.2993700547        7.9097586475
  H         7.3776782759       10.2484979371        8.7360885674
  H         6.6773565815        8.5960077040        8.5435607438
  C         4.3403288207        9.5535298830        7.2289400274
  H         5.2358712885       10.5556232479        8.8944538067
  H         5.6958868760       11.1995195844        7.3988170675
  C         3.0926897349       10.4177317121        6.9956966489
  H         4.1513294972        8.7772438740        7.9257072628
  H         4.6970767787        9.2027766518        6.2647513489
  C         3.3373059290       11.7457103293        6.3242897542
  C         2.6014109831       11.0500829115        8.2596143253
  C         1.9308893472        9.6345414796        6.2112742190
  C         3.0463438774       12.8319486386        7.1111662636
  C         3.8690260602       12.1396282556        5.0625412621
  C         2.6149833074       12.4267923125        8.3756023682
  C         2.0749000979       10.3535693397        9.3876083877
  H         2.4914424723        9.2111733548        5.3783362209
  H         1.6677734792        8.7914793487        6.8741665902
  C         0.6505347801       10.4193698190        5.9233551956
  S         3.4014296021       14.3714264693        6.3954356386
  C         4.0080515321       13.5067297094        4.9913542227
  H         3.9956451674       11.3514475124        4.3353083391
  C         2.1745981336       12.9180022869        9.5857417027
  H         2.1537122612        9.2720831783        9.4746545628
  C         1.5912188092       10.8988496475       10.5689915974
  H         0.8475155831       11.4602179644        5.5620043894
  H        -0.0340921161       10.5035278412        6.8032165754
  C        -0.3261518317        9.7778812066        4.9030969197
  C         4.4352010651       14.2221415500        3.7226094809
  C         1.6231853691       12.2460992636       10.6840310355
  H         2.2246066171       14.0024994162        9.5934273995
  C         1.1551127941       10.4551236173       11.7916295783
  H        -1.3921453141       10.0903538385        4.9386208301
  H        -0.5014648988        8.7670747207        5.3211897597
  C         0.1755681999        9.7627664764        3.4447467577
  C         4.3856486425       15.5971192032        3.5509682415
  C         4.8625094921       13.3515709192        2.6633669165
  C         1.1919905930       12.8496483494       12.0060247638
  C         0.8918163472       11.5183544448       12.6370298593
  S         1.0002768114        8.9706398779       12.5833316441
  H         0.5105376362        8.7796008587        3.3592005062
  H         1.0161455266       10.3655171921        3.1569479165
  C        -0.9860493582        9.9043396384        2.4939251012
  N         3.8760301199       16.5979256881        4.4248537317
  C         4.5944312344       16.1602911643        2.3351553210
  C         5.2176117139       13.9167093082        1.4349097323
  H         5.1591401413       12.3454635817        2.8096357085
  C        -0.0409908499       13.6547083300       11.8149478756
  C         2.2446668660       13.7316153339       12.6613522223
  C         0.5266009820       11.1358454761       13.9524160534
  C         0.5359235045        9.7626580284       14.0594997427
  H        -1.6340276474        9.0161564082        2.4486569191
  H        -1.5410391504       10.7131937835        2.8922710793
  C        -0.5245535835       10.1072280873        1.0643424670
  S         3.8428114354       18.0592920925        3.7209259594
  N         4.3972277322       17.5536565155        2.3069134965
  C         5.0643090516       15.4095220016        1.2295453268
  H         5.7165766545       13.2596189480        0.7497854404
  H         0.3522913346       14.6138807941       11.5721619926
  H        -0.5599556311       13.8287704262       12.7532190290
  C        -1.0778903249       13.0168938281       10.9319569592
  H         2.6412391236       14.3991833867       11.9284660107
  H         1.6773519455       14.2915445597       13.3596023020
  C         3.3844368021       12.9360106309       13.3131688081
  H         0.3628649245       11.9060677201       14.6261746130
  C         0.3926529900        9.0515631112       15.4039246194
  H         0.3552232381        9.4222818998        0.9369138683
  H        -0.0869366787       11.0464869964        0.9866592180
  C        -1.5738961940        9.8535371227        0.0403872977
  C         5.1994649780       16.1002887686       -0.0354511340
  H        -0.6801856958       12.9398265021        9.9046955485
  H        -1.3159266310       11.9874873163       11.2211238157
  C        -2.3816275368       13.8956646552       10.9326007155
  H         3.6723451518       12.1410587205       12.6242747165
  H         3.1693290991       12.2545466723       14.1843198893
  C         4.5092391594       13.9323015087       13.7383081033
  C         0.3524060751        7.6180676647       15.5862754898
  C         0.1116331957        9.8235309123       16.6332046607
  H        -1.8099538581        8.8460286219       -0.1294012392
  H        -2.4796107664       10.3561445961        0.2614488513
  C        -1.0408771980       10.4417050858       -1.3228672221
  H         4.8741820581       17.1826996808       -0.1083428597
  C         5.4211733035       15.6286175479       -1.3122748915
  H        -2.1723184439       14.8944754184       10.5967353302
  H        -2.8004237567       13.9089384821       11.9464030456
  C        -3.4129830149       13.2699533592       10.0322262190
  H         4.6654434418       14.6970213794       12.9320173539
  H         4.2541459568       14.5617829977       14.5742479288
  C         5.8313142444       13.3389221060       14.0969144061
  N         0.6344687357        6.7282076838       14.5436804054
  C        -0.0116905217        6.9823685861       16.7635126181
  C        -0.2332743727        9.1809091377       17.8523243512
  H         0.2225668610       10.9289687665       16.6355379181
  H        -0.2941865222        9.7418302064       -1.6937351182
  H        -0.4866313955       11.3496970142       -1.1575802555
  H        -1.7256398768       10.5632779415       -2.1421726413
  S         5.6958181679       14.0210660323       -1.7512845560
  C         5.5508397377       16.5775350845       -2.4370727559
  H        -3.2417345936       13.6686305245        9.0162328710
  H        -3.2339610626       12.2516464351       10.1058293908
  C        -4.8996603083       13.4149494001       10.4627333865
  H         6.1858311648       12.9381867266       13.1295531888
  H         5.6527270939       12.5932580121       14.8708419393
  C         6.7131640338       14.5193708604       14.6084227171
  S         0.4610011407        5.2257316611       15.1231085747
  N         0.0173281096        5.6604563624       16.6200347634
  C        -0.2874318244        7.6857706387       17.9691300208
  H        -0.4522683095        9.8217421931       18.7267386891
  C         5.9260392590       14.6231591978       -3.3971588778
  N         5.9278038598       15.9621042818       -3.5279748361
  O         5.3870586964       17.7852150931       -2.2701375265
  H        -5.0838119252       12.9776052169       11.4238379722
  H        -5.1635438027       14.4518833043       10.5955937660
  C        -5.7701094368       12.5493595527        9.5227870493
  H         6.1158997976       15.3901218068       14.9441836587
  H         7.3177826719       14.2737585000       15.4959442689
  C         7.7512877494       15.1608684411       13.6510643685
  C        -0.7124419784        6.9661532412       19.1148587047
  S         6.6598559757       13.6754096713       -4.6255952692
  C         6.1118927985       16.7118799808       -4.7402062819
  H        -5.2123827513       11.7893595925        9.0540148510
  H        -6.4121752759       11.9547576607       10.1406420990
  C        -6.5394966516       13.3568939178        8.4661195766
  H         7.5110648453       14.7462916693       12.5917165606
  H         8.7212236576       14.7934471751       13.8402741096
  C         7.5488991357       16.6897567118       13.6546191664
  H        -0.6741070224        5.9199698777       19.0615489131
  C        -1.0681692164        7.3741180246       20.3956858046
  H         6.7471354061       16.2546496508       -5.4055448756
  H         6.5020681307       17.6974758474       -4.5851225743
  C         4.8801071596       16.8771873762       -5.5658257765
  H        -6.6624898948       12.7441217431        7.5106074332
  H        -5.9102609324       14.2320064180        8.2138485974
  C        -7.8513664977       13.8153348720        9.0518976308
  H         8.1905741784       17.1649821617       12.8788255668
  H         6.6096338713       16.9623443155       13.3881361191
  C         8.0323200197       17.3356306201       14.9801026577
  S        -1.4209783212        8.9302055035       21.0475721186
  C        -1.2653734556        6.3193981836       21.4015484313
  H         5.1428604271       17.4315115698       -6.4245926933
  H         4.0488411559       17.4780076067       -5.0955762894
  H         4.4192971198       15.9939849550       -5.9761297958
  H        -8.5133025443       14.2308445647        8.3220198524
  H        -8.4910928320       13.0615641586        9.3933880706
  H        -7.6874271762       14.6462359661        9.7357359723
  H         9.0955995943       16.9511675398       15.0925241778
  H         8.0447659082       18.4211272664       14.8020976470
  H         7.3695736234       17.0335717964       15.7920311837
  C        -1.8442853625        8.2073181055       22.5614724943
  N        -1.7635177051        6.8722624166       22.5567664022
  O        -1.1527243377        5.1009001532       21.1945961816
  S        -2.3732928100        9.0801548903       24.0183332194
  C        -1.9906721447        5.9195299289       23.6757749097
  H        -2.3339793040        4.8746610849       23.3070074346
  H        -2.7870557200        6.2455508507       24.2257870972
  C        -0.7122780167        5.7880941804       24.5633994271
  H        -0.0624697502        6.6281292439       24.5628725321
  H        -0.1474265257        5.0142779348       24.1840708570
  H        -0.9195923051        5.4484782455       25.5332594415
