352
i =
  H        -3.6379495172       13.0911414352       16.5248088039
  C        -2.7029180876       13.5824769116       16.6277008276
  H        -1.8879073428       12.9281726442       16.8843979496
  C        -2.8064372100       14.6130409064       17.7830666648
  C        -2.3267517002       14.2561266831       15.3774806624
  C        -3.2459681142       13.8594834042       19.0779965044
  H        -1.8159721431       15.0854546035       17.9255548872
  H        -3.5402505896       15.4173508928       17.6182979702
  H        -1.4226392889       14.7911517682       15.4399838016
  H        -2.1583658660       13.5859339468       14.5294574964
  H        -3.0603431405       15.0074965623       15.0746364007
  C        -2.1624427181       13.7232608850       20.1025345312
  H        -3.5835229033       12.8343457912       18.9016454358
  H        -4.0928895005       14.3362077684       19.4778038728
  C        -2.6300219905       13.4024817348       21.5455883163
  H        -1.5167354025       12.8621553352       19.8789904294
  H        -1.6182843954       14.6111125416       20.0770478725
  C        -1.6822094568       12.6802621064       22.3814495451
  H        -3.5889872610       12.9286264684       21.4376255796
  H        -2.8563073037       14.3929097907       22.0132037368
  C        -0.3777208213       13.5355903080       22.4610687244
  H        -2.0415026019       12.5772126323       23.3681014653
  H        -1.6519368301       11.7111471297       22.0486797921
  C         0.7792150358       12.8904075689       23.2409784117
  H         0.0918798532       13.6348711619       21.4110866714
  H        -0.5979260875       14.4478758763       22.8989822512
  C         1.2141429957       11.5341179061       22.6033173351
  C         0.2979965650       12.1377132579       24.4911739320
  C         1.9141967539       13.9473972103       23.5109340468
  C         0.9332201910       10.4291940195       23.3801878248
  C         1.7959893372       11.1953969095       21.3610380273
  C         0.3474188920       10.8120825049       24.5763191158
  C        -0.1247287706       12.6915842201       25.6304153901
  H         2.1757801278       14.4024096659       22.5783726123
  H         1.6495874881       14.6856184317       24.2080955389
  C         3.1889369168       13.1766844245       24.0138560420
  S         1.4482075570        8.9276307046       22.6540728837
  C         1.9895877989        9.8592605360       21.2415644417
  H         1.9563537745       12.0061247792       20.6892587338
  C        -0.0899657303       10.1766222253       25.7713505896
  H        -0.1680452035       13.7072967361       25.6322219183
  C        -0.5923668638       12.1329785406       26.7806112733
  H         3.6525208881       12.5198896804       23.2857813369
  H         2.9876729568       12.5857177766       24.9908458637
  C         4.2619496686       14.2867377290       24.2943009011
  C         2.4153269110        9.2680559470       19.9445290336
  C        -0.5127605188       10.8155503928       26.8923788223
  H        -0.0712946200        9.0288610256       25.7514014447
  C        -1.0566175734       12.4985422169       28.0268293117
  H         4.9530572183       13.8561001401       25.0122965901
  H         3.8634929953       15.1203225053       24.8060572024
  C         4.9841355796       14.7248847619       22.9842539755
  C         2.4898878017        7.8949826285       19.6536466455
  C         2.8047796820       10.1826865876       18.7975836902
  C        -0.8338001796       10.1458342711       28.1471894599
  C        -1.0305277406       11.4027668746       28.9080552171
  S        -1.2560625239       13.9565722412       28.7639780356
  H         5.5262557945       15.5957469540       23.1719922241
  H         4.2700167034       15.0734978415       22.1878297711
  C         5.7444695683       13.5985388892       22.3205067255
  N         2.0581208180        6.9311348238       20.5673386187
  C         2.9448372253        7.4173882109       18.4272085303
  C         3.1451118444        9.7392497619       17.5792159398
  H         3.2382902408       11.1939876895       19.0025806367
  C         0.4003040833        9.2666096160       28.7612230046
  C        -2.1479216999        9.2868997593       27.9786185191
  C        -1.1661831140       11.8234910167       30.2457840094
  C        -1.3859509410       13.1681466246       30.3636320382
  H         6.7873879607       13.8428251176       22.1822863237
  H         5.8241805612       12.8079658628       23.0219750371
  C         5.1153529667       13.0857136727       21.0203737693
  S         2.3308790827        5.4962977606       19.8815200098
  N         2.7886986754        6.0175893434       18.3986495693
  C         3.2915160007        8.2289244440       17.3356571610
  H         3.4493909976       10.3867519217       16.8421477466
  H         0.5722105319        8.4904384518       28.0389997936
  H         0.2204196292        8.6952503839       29.6591323655
  C         1.7095933575       10.0181036743       28.8381579789
  H        -1.9025096683        8.4326106717       27.2641034100
  H        -2.3965960397        8.8760720527       28.9151010377
  C        -3.3557679333        9.9921249575       27.3925381538
  H        -1.1168094707       11.1873358278       31.0908586136
  C        -1.6809128444       13.9819317735       31.5899085304
  H         4.0292366853       13.1850970241       21.1529755345
  H         5.3219499323       12.0554146830       21.0034862493
  C         5.6475796730       13.7616727216       19.7315195171
  C         3.5549366847        7.6738246083       16.0675075550
  H         1.9496522621       10.4656915176       27.9113187325
  H         1.4892323423       10.9007089709       29.4584919563
  C         2.7972716272        9.0560636610       29.3211660903
  H        -2.9435368244       10.3050447800       26.4319989901
  H        -3.6222196668       10.8810443494       27.9775844843
  C        -4.5986023806        9.1261999120       27.2397502730
  C        -1.7284375344       15.4300305363       31.6620800619
  C        -1.8414248800       13.2877760447       32.9243802145
  H         5.0472481210       13.4410798110       18.9152585287
  H         5.5048731499       14.8172862958       19.8800881066
  C         7.0869917370       13.5422448101       19.5117133867
  H         3.5448520643        6.5968268343       15.9983828541
  C         3.7883474085        8.2431512698       14.8392519049
  H         2.9877869603        8.3309166074       28.4624315019
  H         2.3698735615        8.3731113716       30.0349144083
  C         4.0418909584        9.7309510757       29.7700730540
  H        -4.2667388733        8.4820369843       26.3998061318
  H        -4.6647969308        8.5537644142       28.1978287726
  C        -5.8578178542        9.8388321874       26.8809280237
  N        -1.2972989480       16.2874706481       30.6703371578
  C        -2.1119939102       16.1252072259       32.7759463871
  C        -2.1328427250       13.9861313794       34.0843998919
  H        -1.8692209020       12.2584429184       33.0195813523
  H         7.0782663971       13.8230236885       18.4773620850
  H         7.7888368084       14.0657189000       20.1427858281
  H         7.2450399444       12.4585324077       19.4966991206
  S         4.0414271263        9.8903328183       14.4348604068
  C         3.8381012187        7.2918610442       13.7146042579
  H         4.2069217576       10.5708034074       29.0452400052
  H         3.7172155436       10.2181703325       30.6815490357
  C         5.1528265149        8.7036088784       29.9386340780
  H        -5.7801132708       10.8265758164       27.3811784089
  H        -6.6613634077        9.3542020474       27.3869826464
  C        -6.1890252189        9.9499782240       25.4009252924
  S        -1.6448661569       17.8335576500       31.0410137710
  N        -2.2234480738       17.5277797889       32.5408140434
  C        -2.3642679468       15.4877844381       34.0304220802
  H        -2.2624979557       13.3698359725       34.9328107371
  C         4.2568989439        9.3030795583       12.8175540973
  N         4.2035125985        7.9101317991       12.6085826735
  O         3.6444768253        6.0631585478       13.8026719877
  H         6.0762499323        9.2138304301       30.1433596373
  H         5.2790568565        8.1024955826       29.0705293907
  C         4.9700163828        7.8580389360       31.1515894253
  H        -5.2816176267       10.3667733618       24.9247586173
  H        -6.4649205221        9.0511583498       24.8865589580
  C        -7.3562671410       10.8346898435       25.1314570193
  C        -2.6048964499       16.3284566274       35.1794727818
  S         4.6623563602       10.4091833698       11.4842776535
  C         4.0994199330        7.2507184514       11.3284428543
  H         5.6350371001        8.1424040834       32.0289709547
  H         3.9541876099        8.1139028979       31.5098570994
  C         5.1794089633        6.3080676587       31.0559282098
  H        -7.2317970832       11.4178149136       24.2121271985
  H        -7.4206836835       11.5129192898       26.0089524604
  C        -8.6798395794       10.0019444063       24.9814496926
  H        -2.4064888303       17.3096484377       35.0980273493
  C        -3.1939267214       16.0969118537       36.3999480360
  H         4.5785217429        7.8556431053       10.6601701313
  H         4.6264069138        6.3161058271       11.4319217107
  C         2.7013574189        7.0874091231       10.8987511120
  H         4.7206058971        5.9126509373       30.2152947685
  H         4.6499475989        5.8526875755       31.8005908992
  C         6.7227236143        5.9780544101       31.1244489019
  H        -9.3296293330       10.5401264702       24.3580552733
  H        -8.4471591154        9.0576119260       24.5029117148
  C        -9.4849897229        9.7249236646       26.2800907182
  S        -3.6876870219       14.6622579818       36.9356588556
  C        -3.2656690606       17.2767081204       37.3543292344
  H         1.8945950997        7.3074865796       11.6724065693
  H         2.4133674858        7.7712327604       10.1541397318
  H         2.5355135995        6.1081923349       10.4277716109
  H         7.1246354611        6.1261228482       32.1577923661
  H         7.2914124379        6.5375385928       30.3559749189
  H         6.8572951254        4.9414269879       30.8603489982
  H        -9.1832171163        8.8365219107       26.7983782885
  H       -10.5217494892        9.7492402635       26.0735635105
  H        -9.2498076166       10.6123531856       26.8489663845
  C        -4.0474366000       15.5511153113       38.4039418600
  N        -3.8695644535       16.8704788103       38.4761296741
  O        -2.8287091799       18.4010217900       37.1594018930
  S        -4.4939755624       14.6455276806       39.8347965832
  C        -3.8024940798       17.6025208481       39.7156586328
  H        -3.8720110112       18.6001048760       39.5637060233
  H        -4.6028414009       17.2687281966       40.3545742259
  C        -2.4845607780       17.3317176334       40.4569723003
  H        -2.5399378333       17.4835736471       41.5393025698
  H        -2.2286572056       16.3580858321       40.1878013490
  H        -1.7102154167       18.0129178655       40.2012465722
  H         7.4982758380       11.5621372645        3.3626007981
  C         7.8803263957       10.5761444067        3.5602240756
  H         7.1400058174        9.9180003625        3.6038660075
  C         8.8103853915       10.5039688376        4.7781153245
  C         8.7109862121       10.3362970104        2.3535984284
  C         8.2600261397       10.7984471236        6.1420571267
  H         9.3974123794        9.6025674434        4.8435374944
  H         9.4985561875       11.3686059160        4.5771850955
  H         9.5096777095       11.0303643985        2.3117481578
  H         8.1574813903       10.3009406102        1.3944668700
  H         9.2512221237        9.4147064037        2.4832931273
  C         7.2820881846        9.7611842539        6.6478689943
  H         9.0822280138       10.9971240911        6.8228857515
  H         7.7373066648       11.6971099444        6.0641824491
  C         6.6854577856        9.9026628277        8.0481843079
  H         7.8009601278        8.8313833829        6.7567066160
  H         6.5410127288        9.6751693157        5.8669793450
  C         5.3844396561       10.6837606080        7.8737330302
  H         7.3967744758       10.4403585057        8.6771243710
  H         6.5265600138        8.9427031681        8.5023265620
  C         4.0824223812        9.9102506703        7.3272506522
  H         5.0987961074       11.1120646779        8.7908485950
  H         5.5334940515       11.5325786023        7.2242975003
  C         2.8219069117       10.7892805234        7.1588896077
  H         3.8842407955        9.1741005392        8.0340090352
  H         4.1669910539        9.3842192245        6.4036280313
  C         3.1225580270       12.1123135669        6.4030565430
  C         2.4365183562       11.5475215809        8.3879278283
  C         1.6298273833        9.9437668302        6.5282063071
  C         2.8296658244       13.2598597308        7.0958755954
  C         3.5467484776       12.4208332058        5.0807655589
  C         2.4121690563       12.8898614126        8.3802762520
  C         2.0793999079       10.9818404199        9.5819775100
  H         2.0231644151        9.3796334521        5.7086453551
  H         1.3091545640        9.2776995062        7.3536472110
  C         0.4358807485       10.8081089575        6.1495067640
  S         3.1717320505       14.7076950889        6.2441209191
  C         3.6534518680       13.7558488732        4.8695485032
  H         3.7702619402       11.6645499009        4.4066954634
  C         2.0014784717       13.5385869984        9.5059509146
  H         2.0689681926        9.8834263296        9.5838472241
  C         1.7085395304       11.5420799949       10.7458344465
  H         0.7157452534       11.7830668708        5.8219670797
  H        -0.1132607206       11.0080462578        7.0695882349
  C        -0.5772924193       10.0823925762        5.1943234336
  C         3.9300156100       14.4695155358        3.5860316353
  C         1.6307269221       12.8825982221       10.7072967771
  H         1.8058828061       14.6169530435        9.4915354340
  C         1.1727191159       11.1557620829       11.9437425979
  H        -1.5244767373       10.7002575748        5.2729308084
  H        -0.8390590518        9.1026155900        5.5039625628
  C        -0.0244071509       10.0911705102        3.7400453200
  C         4.0413217763       15.8705413403        3.3154568957
  C         4.4640918283       13.5318601059        2.5257455308
  C         1.2122324204       13.5471723661       11.9741927501
  C         0.9608926013       12.2461618362       12.7649913845
  S         0.7814727712        9.6439658942       12.6176919685
  H         0.6377949335        9.2933388480        3.5430817924
  H         0.5815985688       10.9521303586        3.5390473636
  C        -1.2353412993       10.1174154362        2.8693901649
  N         3.7452775452       16.9466369115        4.1868352371
  C         4.3357643473       16.2977466838        2.0108331986
  C         4.7527342425       14.0199943494        1.2152079729
  H         4.6646447902       12.4648804105        2.6749529793
  C        -0.1096142902       14.3655504646       11.6261890968
  C         2.3415354110       14.4874268293       12.5579144509
  C         0.4288704848       11.8410556296       14.0011512162
  C         0.3349134113       10.4628650603       14.0724881496
  H        -2.1167700318        9.6990231787        3.3168621546
  H        -1.4623765960       11.1553782484        2.6168488893
  C        -1.3227919924        9.3735049334        1.5021294657
  S         3.9960853973       18.3314623623        3.3884801733
  N         4.1595433624       17.6905225639        1.9201673650
  C         4.6040342849       15.4463142707        0.9059164133
  H         5.1626122717       13.2975264655        0.4756184122
  H         0.2026638861       15.0856434999       10.9114623963
  H        -0.3327783030       14.9573168265       12.4803610024
  C        -1.2750172415       13.6041261699       11.1571140196
  H         2.8330663829       14.9709208720       11.7519205170
  H         2.0127009344       15.3104665083       13.2481976283
  C         3.3963066936       13.6784325388       13.3456748534
  H         0.0990736040       12.5944253228       14.7619311410
  C         0.0462030777        9.7343232045       15.3822099574
  H        -2.2706222398        9.4608239109        0.9149536869
  H        -1.3308311670        8.2889004772        1.6548074262
  C        -0.2501995200        9.7658862674        0.5329779858
  C         4.8765493971       16.1169675690       -0.2742210523
  H        -0.9925848874       12.9607770367       10.2683897577
  H        -1.5577188288       12.9198975123       11.9482644042
  C        -2.4683611562       14.4195261865       10.7086941987
  H         3.7044105348       12.9523699083       12.5699877624
  H         2.9144136229       13.2250253867       14.2336236624
  C         4.5527565122       14.6184796074       13.7159718575
  C         0.0507086731        8.3367975094       15.5635989184
  C        -0.1745385318       10.4512062773       16.6300510195
  H         0.4736050570       10.3818994096        0.9835845155
  H         0.4392438261        8.9521255545        0.2929847031
  C        -0.8060870774       10.5392975392       -0.6668605598
  H         4.7203264098       17.1619436840       -0.4088960116
  C         5.1597076872       15.6661171068       -1.5477688830
  H        -2.2334505621       15.0330635571        9.8184079900
  H        -2.8877761864       15.0966152074       11.4630749899
  C        -3.5346921022       13.5314954244       10.0855452754
  H         5.0554533101       14.9467777399       12.8049540916
  H         4.1768749110       15.4902384610       14.2283923016
  C         5.5392152818       13.8263316753       14.6403680740
  N         0.4808996441        7.4789924047       14.5783978711
  C        -0.1809384827        7.7016234808       16.7508369255
  C        -0.3533268495        9.7848547737       17.8270638657
  H        -0.2149848855       11.5668305361       16.6621641075
  H        -0.1769504119       11.4316340911       -0.9736462594
  H        -1.7984980033       10.8846559775       -0.4040005073
  H        -1.0209086849        9.8369146636       -1.4670047385
  S         5.5021993942       14.0068141743       -1.9956722532
  C         5.2429754723       16.7164395034       -2.6956904841
  H        -3.1304085442       13.2640866603        9.0675965974
  H        -3.7247467139       12.6009328548       10.6175402639
  C        -4.9132533265       14.1763712347        9.9231917911
  H         5.5125865805       12.7356206787       14.4953136846
  H         5.3299994446       13.9440449490       15.7077600501
  C         6.9834250670       14.2852036861       14.4344613508
  S         0.5789693229        6.0067618326       15.1493978862
  N        -0.0835970956        6.3180608495       16.6168139676
  C        -0.3743477762        8.2869069261       17.9745553453
  H        -0.4080101109       10.4444030495       18.7170083141
  C         5.8142439540       14.6984415484       -3.6164512726
  N         5.6985853557       16.0476604699       -3.8168070522
  O         5.1254212165       17.9152492692       -2.6079838395
  H        -5.3852208417       14.6066026892       10.8107748154
  H        -4.7563379799       15.0135215715        9.1961541405
  C        -5.9274403839       13.2963103849        9.2201964114
  H         7.6289959168       13.4637081036       14.7869788270
  H         7.2841554667       14.2430649099       13.3149841782
  C         7.3404505627       15.5926385540       15.0977754503
  C        -0.6526384594        7.4685885085       19.0765477350
  S         6.3109066105       13.7201552762       -5.0019021776
  C         5.8422935454       16.6923258045       -5.1164760494
  H        -5.5851219495       12.6820755933        8.4647336393
  H        -6.4204493638       12.6955651593        9.9458964454
  C        -7.0624993841       14.0547399966        8.5193965972
  H         7.7207376011       15.3819183615       16.0736055981
  H         6.4240617772       16.2072073869       15.2151906245
  C         8.4176712304       16.2558215427       14.2571641511
  H        -0.4944458649        6.4093164151       18.9744674610
  C        -1.1199089571        7.7144542276       20.3291907599
  H         6.6063572419       16.3339920263       -5.7621433578
  H         6.1186085084       17.7799292553       -4.9503471347
  C         4.4865517113       16.5548680799       -5.7915916345
  H        -7.4858942541       13.5172401033        7.7245352355
  H        -6.7977195698       15.0493357951        8.2455512172
  C        -8.1522877257       14.2571673406        9.4815164489
  H         9.0036284918       16.8658845937       14.8431949109
  H         9.0628973711       15.4579845333       14.0051881898
  C         8.0579415812       17.1220604497       13.0873454029
  S        -1.7006660375        9.2050345887       20.9659471100
  C        -1.3381258861        6.5674188888       21.2831295870
  H         3.6331912719       16.2842744703       -5.1499911780
  H         4.5679073444       15.8592125083       -6.5485384206
  H         4.1384098194       17.4100265349       -6.3759451153
  H        -8.7028232664       13.2925697237        9.6986299018
  H        -7.8396899447       14.7563582259       10.3994081797
  H        -8.8133680412       14.8492372137        8.9292616122
  H         7.2128060537       16.7770113458       12.5429833548
  H         7.6571446185       18.0594420156       13.5056610336
  H         8.9905557503       17.0712254331       12.5412100264
  C        -2.1496288940        8.3554888467       22.4538541656
  N        -1.8676424029        7.0174359493       22.4732934848
  O        -1.1443275653        5.4160766313       21.0099516694
  S        -2.9006728038        9.0030665315       23.8478745639
  C        -2.1928520048        6.1185599222       23.5906879333
  H        -2.6178935489        5.2391615761       23.1923579456
  H        -2.9836585718        6.3831556561       24.3324621537
  C        -0.9369818808        5.9640893723       24.5309652623
  H        -0.0260402263        6.1728413836       24.0096695055
  H        -0.8380070068        4.9923507606       24.9059830331
  H        -0.9153417537        6.7347058499       25.3176318569
