352
i =
  H        -3.8293447209       14.9481888595       15.8177251231
  C        -3.4702260263       13.9321209026       15.9831685421
  H        -4.3915130403       13.4367611001       16.2920138156
  C        -2.4159060253       13.9308796773       17.1078716600
  C        -2.8130556366       13.4594789663       14.7005737475
  C        -2.9602472741       13.8364486087       18.5415291272
  H        -1.6847414071       13.1048951628       16.9138390831
  H        -1.7809651924       14.8178674507       16.9914704085
  H        -1.6765729532       13.3305434719       14.7214035948
  H        -3.2371061755       12.5833961732       14.2777615621
  H        -2.9641886115       14.2306003011       13.9139235408
  C        -1.7724304769       13.7612279343       19.5508894109
  H        -3.6449345328       12.9867434737       18.7921576669
  H        -3.5530910951       14.7727546605       18.7492758534
  C        -2.2244963746       13.8358741455       20.9801739168
  H        -1.2954460912       12.7568117562       19.5055086670
  H        -1.0166417643       14.4960557317       19.2606345288
  C        -1.1865256822       13.2786554691       22.0023239858
  H        -3.2463319711       13.3680899233       21.0908629660
  H        -2.4323385894       14.8574422118       21.2684732471
  C         0.1699117512       14.0275099693       22.1853102643
  H        -1.6746294113       12.9336301964       22.9264507357
  H        -0.8972392536       12.3678202302       21.4824527569
  C         1.2707075106       13.3504090169       22.8840514984
  H         0.4942249107       14.2471266620       21.1940374115
  H        -0.0741221907       14.9714894140       22.7767549986
  C         1.6625835915       12.0327056925       22.2567216326
  C         0.7434265253       12.7315883472       24.1391361430
  C         2.4890706641       14.3207921838       22.9510513419
  C         1.3811995665       10.9548096585       23.1009998576
  C         2.2328791715       11.5971591295       21.0106364298
  C         0.7586679661       11.3854151493       24.2910966943
  C         0.2492828623       13.3730364520       25.3296385632
  H         2.6104545969       14.8727788783       21.9581520520
  H         2.3108277471       15.0477370067       23.7061468095
  C         3.8688626849       13.6412453913       23.0099461480
  S         1.6700801907        9.3899667464       22.3580779303
  C         2.2823570578       10.2406612261       20.8842753189
  H         2.4054262158       12.2948705489       20.2595300496
  C         0.3188015432       10.7620700686       25.4255314217
  H         0.2782048316       14.4332895117       25.2864411377
  C        -0.1006250719       12.7286981741       26.5092415327
  H         4.1270814320       13.1498199195       22.1350896730
  H         3.8830076499       12.7921280052       23.7208366094
  C         4.9529072042       14.4672302060       23.6068695578
  C         2.7284096035        9.5362097150       19.6158685085
  C        -0.2218336865       11.3681763861       26.5920450085
  H         0.4598494618        9.7135952434       25.4096889537
  C        -0.4853217323       13.1029092842       27.7682859863
  H         5.3666562846       14.0643394886       24.5365292511
  H         4.5881912917       15.3763433645       24.0265949638
  C         6.2215700107       14.7195180683       22.7608097183
  C         2.5373680976        8.1542995669       19.3041278036
  C         3.3671253420       10.4393817764       18.5798545960
  C        -0.6124956160       10.6931510353       27.7934326065
  C        -0.7705948080       12.0176202912       28.5435284021
  S        -0.7151823017       14.6419126245       28.4715581321
  H         7.0335237790       15.3394904774       23.2524522387
  H         6.0064180181       15.5242070913       21.9953722271
  C         6.8446904025       13.5035592919       21.9741407587
  N         1.9837507730        7.1483298433       20.1324982703
  C         2.9111291053        7.6414923282       18.0894894490
  C         3.5948255308        9.9299761121       17.3034937369
  H         3.6670465259       11.4793550452       18.6724857540
  C         0.5000054699        9.7898189404       28.4051686988
  C        -1.9346076361        9.8426419325       27.6261809646
  C        -1.1181019705       12.4140021804       29.8597857127
  C        -1.1107561963       13.7682114092       29.9378825881
  H         7.9639920331       13.4545173367       21.9656270744
  H         6.6192595435       12.6448823684       22.6929648747
  C         6.2866939235       13.1198157031       20.6025026550
  S         2.0989930164        5.7281568285       19.3627362376
  N         2.8672531947        6.2681986259       18.0218319488
  C         3.3642071170        8.4206522398       16.9862111109
  H         3.9467047935       10.5525436716       16.4468462644
  H         0.9597127260        9.1898832262       27.6023593462
  H         0.2115748967        9.1194683777       29.2041595241
  C         1.7724251646       10.5360246400       28.9073234240
  H        -1.8938204105        9.0012958660       26.8779406798
  H        -2.1248101687        9.2187973232       28.4425463810
  C        -3.1319051380       10.6848033235       27.1977649725
  H        -1.2816329417       11.6168665905       30.5682646635
  C        -1.4207320989       14.5486895473       31.1952865126
  H         5.3243474769       13.6336185866       20.4525362690
  H         6.1541093961       12.0533694472       20.5665853558
  C         7.2117227554       13.6480109267       19.4568022053
  C         3.6702482820        7.7227651444       15.7210920017
  H         2.2350311438       11.1514632833       28.1471738095
  H         1.4068872094       11.1452579378       29.7775548721
  C         2.9110776228        9.5182839220       29.2093950834
  H        -3.0079060620       11.4433513166       26.3908235530
  H        -3.4833785160       11.2453480888       28.0805466049
  C        -4.3754271879        9.7711335021       26.9371225605
  C        -1.5412561141       15.9327360822       31.3528694040
  C        -1.6721289243       13.7137585898       32.3752788538
  H         7.4428255959       14.6836509140       19.7268055481
  H         8.1484639789       13.1328357959       19.4507764880
  C         6.6107966229       13.5998938598       18.0357481636
  H         3.4829614713        6.6754502158       15.7316064924
  C         3.9556480654        8.1718282877       14.4663384902
  H         3.1298200533        8.7421464188       28.4167356605
  H         2.5233330306        8.9696826538       30.1328251325
  C         4.2074376817       10.2031452760       29.7003161747
  H        -4.0380726496        9.1973258169       26.1413409154
  H        -4.6717983725        9.1797569301       27.8298194505
  C        -5.4505650116       10.6897279217       26.4372979317
  N        -1.4271958126       16.9452595377       30.4527424527
  C        -2.0080698252       16.3998219532       32.6298633132
  C        -2.0702806709       14.2036469870       33.5983873733
  H        -1.6638665155       12.6165031579       32.2443062026
  H         6.0469375560       14.5010645340       17.8203146644
  H         7.4219504337       13.6349850705       17.3035000984
  H         5.9951717792       12.6544635523       18.0074475031
  S         4.2043717436        9.7651582523       14.0288263689
  C         3.9956294029        7.2338792521       13.2767074744
  H         4.1928462208       11.2361888383       29.2981778806
  H         4.1493070758       10.2594990851       30.8257915009
  C         5.5189079116        9.6305602814       29.2215523552
  H        -5.0370848172       11.3749322171       25.6718333525
  H        -5.8434786825       11.2768092402       27.2939294151
  C        -6.6121751058        9.8559398301       25.8454296629
  S        -1.6417536358       18.3266247099       31.2372670055
  N        -2.1097442312       17.7446031573       32.6593017119
  C        -2.3702887703       15.6377950909       33.7773239921
  H        -2.2113606589       13.4712820133       34.4036559839
  C         4.3698394796        9.2143171347       12.3194555943
  N         4.3004871181        7.8557986309       12.1214952538
  O         3.7431702038        6.0538710868       13.3814403148
  H         6.1546013104       10.5241418075       29.2760077910
  H         5.6130988444        9.1883990084       28.1981945676
  C         6.1818494768        8.7119402543       30.2126352858
  H        -6.1457614855        9.1551157091       25.1488134655
  H        -7.1034782538        9.2386914773       26.5629897431
  C        -7.6108454391       10.7364064667       25.0807835757
  C        -2.8192750590       16.2297855403       34.9686421183
  S         4.6767715518       10.2757243870       10.9585371183
  C         4.1966108873        7.2497756232       10.7627894669
  H         7.1819070458        8.5577041628       29.7585547046
  H         6.1361181903        9.1713015435       31.2105059712
  C         5.5054983987        7.3647349426       30.2869049004
  H        -7.2280728316       11.2088828600       24.1269985865
  H        -7.9610693332       11.5738004462       25.7341985451
  C        -8.9174580733        9.9304526702       24.9467976084
  H        -2.7006038662       17.2437011197       35.0360189111
  C        -3.2938831218       15.6396939292       36.0993671211
  H         4.6928780702        7.8576378618       10.0300087047
  H         4.8185550050        6.3225159266       10.7733700166
  C         2.7398465246        7.0110973622       10.4163973261
  H         5.2520632768        6.9836350649       29.3284129395
  H         4.5937524074        7.3463749970       30.8593559829
  C         6.3865842528        6.4072627806       31.0501178247
  H        -9.3544610703       10.3600325516       24.0562104267
  H        -8.4788359301        8.9641694169       24.6864178555
  C        -9.9589023895        9.9907435652       26.0439595529
  S        -3.8060615470       14.0015486495       36.3239596969
  C        -3.6129555818       16.5033425638       37.2419487977
  H         2.6573317632        6.6872233581        9.3831432826
  H         2.2777864481        6.1543628728       10.9740854941
  H         2.0811506308        7.8584985124       10.5485867531
  H         6.7140236806        6.9064911231       31.9541240115
  H         7.2925367369        6.0377464898       30.5378944684
  H         5.8798985622        5.4628776079       31.4049944416
  H        -9.6640731093        9.1980079604       26.7144884876
  H       -10.9862072933        9.9651867548       25.7207299333
  H        -9.9059787989       10.9199700190       26.6194623808
  C        -4.2900877490       14.5041237293       37.9606103653
  N        -4.2732390127       15.8182205293       38.1883300024
  O        -3.3839575221       17.7675456915       37.2764051808
  S        -4.9257296015       13.3782741065       39.1335124805
  C        -4.8334048320       16.4687596670       39.3767323910
  H        -5.1919781513       17.5021515787       39.1843672203
  H        -5.6544363815       15.9214324719       39.7855706499
  C        -3.7484088687       16.7281275847       40.4411477047
  H        -3.3319367437       17.7256794690       40.2296246481
  H        -4.1516031956       16.7769618605       41.4456214469
  H        -2.9093176667       15.9976415406       40.3179026397
  H         7.4432464907       11.6201773267        3.3970652089
  C         8.2787050353       10.8583172946        3.3419131595
  H         7.5962927074       10.0243630373        3.2536222111
  C         9.0667964161       10.9115237985        4.5806557264
  C         9.0980272439       11.1680391540        2.0511142198
  C         8.2821341768       11.1955029186        5.9092334102
  H         9.6758658136        9.9831483922        4.6030465031
  H         9.8015241632       11.7460051531        4.5389792901
  H         9.8916044121       11.9116743115        2.3089001789
  H         8.3950545205       11.6026651173        1.3412763484
  H         9.6739770745       10.3601766991        1.5551401965
  C         7.4612821614       10.0373667870        6.3388007916
  H         8.8759840176       11.4274342767        6.6888723420
  H         7.5945663882       12.0188744733        5.6262468973
  C         6.6897974636       10.1480030150        7.6086367308
  H         8.1769732972        9.2207507277        6.5537255491
  H         6.8584327099        9.6683156555        5.4710822762
  C         5.5162142302       11.1092277479        7.5278346623
  H         7.3859406771       10.3584857292        8.4509632619
  H         6.2822359214        9.1870014503        7.9128258725
  C         4.2810046919       10.4299413309        6.9885362924
  H         5.2916091764       11.5543188075        8.5488623336
  H         5.7556234568       11.9420504219        6.8718038096
  C         3.0085062533       11.3088551485        6.7467652443
  H         4.0449630417        9.5983735019        7.6276464566
  H         4.6126055077        9.8922673479        6.1310883229
  C         3.3810900510       12.6541366347        6.0905332841
  C         2.6064435205       12.0067378809        7.9853955066
  C         1.7865790315       10.6311025125        6.1121308071
  C         3.1674436905       13.8059183688        6.8269545729
  C         3.9169112025       13.0877448492        4.8296548802
  C         2.6378741051       13.3701784431        8.0783351671
  C         2.1947245134       11.3178580407        9.1351009925
  H         2.2225808047       10.0138529321        5.2999274853
  H         1.3317244059        9.9436949401        6.7978425028
  C         0.6492698120       11.6063174404        5.6299831461
  S         3.6182880083       15.2595253518        6.1595063388
  C         3.9973982846       14.4492299637        4.7142425797
  H         4.1998039565       12.3759147448        4.1009328277
  C         2.2640360057       13.9387198768        9.2767094526
  H         2.1252208092       10.2192125380        9.1369105797
  C         1.8256064739       11.9066852843       10.3043195705
  H         0.8700114137       12.6869200543        5.7009581095
  H        -0.0961158055       11.6407527671        6.3880539767
  C        -0.0545626416       11.2373374145        4.3325075965
  C         4.3213718329       15.1503497493        3.4306606322
  C         1.8208723207       13.2577026229       10.4435441536
  H         2.3809529086       14.9996225532        9.2603872069
  C         1.4517492452       11.4767657023       11.5068024362
  H        -0.5369911087       12.1106366497        3.9681240274
  H        -0.7492025698       10.3992698622        4.3841226397
  C         0.7980267132       10.8112206580        3.0936404462
  C         4.4053769139       16.5360758167        3.2592972748
  C         4.7825938833       14.3830148285        2.2894108540
  C         1.3960926439       13.9478802799       11.7368649748
  C         1.2403190273       12.5839700897       12.3713329522
  S         1.2536002982        9.9248537436       12.2963804059
  H         1.1539011826        9.8229575052        3.2405672434
  H         1.7154284369       11.4312861887        3.0636105292
  C        -0.0123333539       10.7233586191        1.8576511604
  N         4.2377145318       17.4681860316        4.3036748182
  C         4.7695013104       17.1344421478        2.0666363764
  C         5.1944438570       14.9910581669        1.0840648933
  H         5.0370902427       13.3628032231        2.4277920559
  C         0.1370050523       14.6932703099       11.6093543114
  C         2.5089376481       14.7986707921       12.3874794178
  C         0.9041707582       12.1003042337       13.6639988857
  C         0.8784830434       10.7489171295       13.7639482612
  H        -0.6844044116        9.9512919579        2.0197343038
  H        -0.6497318325       11.6430123907        1.6188118427
  C         0.7968582701       10.2914115896        0.6212487780
  S         4.3357822984       18.9255947082        3.6841813991
  N         4.6780808287       18.5446948529        2.1558896252
  C         5.1589677165       16.4435337015        0.9045017753
  H         5.4689318329       14.3078620794        0.3304842187
  H         0.2515105325       15.5240495474       10.9195610739
  H        -0.2669367138       15.1551688313       12.5417142618
  C        -1.0465974642       13.7993645080       11.1093967434
  H         2.6769906968       15.8258352739       12.0144797240
  H         2.1394256810       14.9659876718       13.3588623030
  C         3.8593987850       14.0466492217       12.4333034544
  H         0.7160189074       12.7381475346       14.4110435446
  C         0.4173478599        9.9665947910       14.9518434535
  H         1.0525087653        9.2199363195        0.6884411107
  H         1.8635672790       10.7383086347        0.6969298145
  C         0.2085062628       10.6148770797       -0.8183534530
  C         5.5638256270       17.1118913099       -0.3356682198
  H        -0.8494182246       13.2541624313       10.2217074204
  H        -1.2900944852       13.1084525286       11.9286454838
  C        -2.3325295407       14.6007959112       10.9167558163
  H         4.4211292620       14.0753227615       11.4908693934
  H         3.6976039689       13.0039550425       12.6835602739
  C         4.6495620378       14.6094998707       13.5878397714
  C         0.4264843050        8.5551823512       15.0443470282
  C         0.1751011976       10.6891653611       16.2882899451
  H         0.3113089976       11.6877117974       -0.9346228592
  H         0.8806062035       10.0774866773       -1.5313792618
  C        -1.3061641654       10.1681014696       -0.9200556840
  H         5.5975756199       18.2228854634       -0.2932213752
  C         5.7886815985       16.6396327428       -1.6116100507
  H        -2.1318801038       15.4774284224       10.4186180213
  H        -2.6885411217       15.0132507091       11.8801465732
  C        -3.4215669568       13.7088274967       10.3084466517
  H         4.0051789199       15.2754924264       14.2208282563
  H         4.9432032751       13.6771152515       14.1209921974
  C         5.8760853465       15.4388874043       13.1200831993
  N         0.6804601540        7.6971888375       13.9821217733
  C        -0.0022034942        7.8683761505       16.1675344788
  C        -0.0725757121        9.9597134579       17.3676388428
  H         0.2331534338       11.7722756969       16.3237497366
  H        -1.5385846327        9.9544784053       -1.9554316609
  H        -1.9074806652       11.0474688397       -0.7519045767
  H        -1.4688012205        9.2645718411       -0.3772289433
  S         5.9323778693       14.9929957008       -2.1121054902
  C         5.8516864444       17.5558957960       -2.7427198811
  H        -3.1173624987       13.3211320562        9.3525975770
  H        -3.6437073731       12.9657619641       11.0244856308
  C        -4.6574665741       14.5149793407       10.0588323522
  H         5.5547675939       16.1856938201       12.4239046847
  H         6.6231868818       14.7537316279       12.6292738473
  C         6.5982463883       16.1055595405       14.2880970215
  S         0.5598850647        6.2303237979       14.4967323954
  N         0.0516333058        6.5225403153       16.0192579949
  C        -0.2822555325        8.4703415742       17.4024144751
  H        -0.2384394275       10.4489246098       18.3430697298
  C         6.1005023958       15.5203854787       -3.7116534684
  N         6.0597075075       16.8591135787       -3.9161964874
  O         5.9307935176       18.7870522186       -2.5889188786
  H        -5.2041721556       14.7488026358       10.9606008715
  H        -4.3668148482       15.4691972673        9.7388176797
  C        -5.5260005429       13.8533894469        9.0323583749
  H         5.9599194642       16.9410176809       14.6873855089
  H         6.6646927124       15.3992201326       15.1145702273
  C         7.9592729393       16.6990099840       13.8884333100
  C        -0.7124946127        7.6448776748       18.4835725620
  S         6.5007218906       14.4586173986       -5.0911442802
  C         6.0142991336       17.4706642581       -5.2286739551
  H        -5.2452776378       14.0424519202        8.0301658504
  H        -5.5746517721       12.7832700755        9.0615083343
  C        -6.9104733273       14.5337973275        9.0535537178
  H         7.8050844039       16.6227180109       12.7821672571
  H         8.7293230172       16.1006211571       14.1958550403
  C         8.2924695330       18.1262430233       14.3806935883
  H        -0.9581499951        6.5844671123       18.3585137779
  C        -1.1602753127        7.9885852434       19.7628125572
  H         6.5867408137       16.8166817409       -5.9569042644
  H         6.5109815095       18.4000145021       -5.1440198786
  C         4.6334725837       17.5463768222       -5.8569698504
  H        -7.4617289332       13.9552828995        8.3909092499
  H        -6.6878252611       15.5330963236        8.6688785857
  C        -7.6723209092       14.5153788422       10.4093491474
  H         9.3199893143       18.1236208338       14.2393338834
  H         7.9398949725       18.8793232669       13.7302022795
  C         8.0035030830       18.6148211053       15.7990348623
  S        -1.6207335557        9.6023377480       20.4089981293
  C        -1.4667308415        6.8797065717       20.6873795413
  H         3.8393365402       17.6529915548       -5.1651151501
  H         4.5081415214       16.5994316763       -6.3669901332
  H         4.5174163507       18.3276080300       -6.5882653676
  H        -7.3376783903       13.6214694425       10.8709703427
  H        -7.2719309037       15.2179514289       11.0825336056
  H        -8.6739188022       14.6245957661       10.3935861676
  H         8.5385556896       18.0435352709       16.5566069306
  H         8.1878893016       19.6554921597       15.9722891689
  H         6.9603453644       18.4143708696       16.0291101688
  C        -2.0130853012        8.7116127315       21.8285357208
  N        -1.9274720557        7.3694051935       21.7809118917
  O        -1.2171780665        5.6953895008       20.4113244574
  S        -2.3291588817        9.3421210081       23.4768260633
  C        -2.1367340073        6.3944048992       22.8834676866
  H        -2.4468533168        5.4543268091       22.3873315856
  H        -3.0438540658        6.6258411352       23.4652192402
  C        -0.8175325370        6.2478138518       23.5802437312
  H        -0.6321942239        7.1556792748       24.1859826613
  H         0.0495086533        5.9858192819       22.9481406206
  H        -0.9578091182        5.3998844451       24.2656607902
