352
i =
  H        -3.0633230297       14.7630929499       17.1676367232
  C        -2.9291274573       13.6828732507       17.0663401551
  H        -3.7797390932       13.1494291605       17.4651152751
  C        -1.5854737612       13.4808167220       17.7808054795
  C        -2.7694873104       13.3467523923       15.5339317758
  C        -1.6187233312       13.9219547051       19.2065313346
  H        -1.4476075486       12.4346753509       17.7342998927
  H        -0.8110934234       13.9147198862       17.1748891041
  H        -2.6167503817       12.2827225046       15.4249496832
  H        -3.6010609711       13.7203970357       14.8730176726
  H        -1.7707365491       13.6758617364       15.1849112939
  C        -2.6842808307       13.2427599191       20.1000514219
  H        -1.6182827583       15.0222738555       19.1494083256
  H        -0.6624676294       13.7200931837       19.5474634436
  C        -2.4968230769       13.1336479508       21.6406622281
  H        -3.6659770446       13.7944208056       19.9672205261
  H        -2.8330443679       12.2339020494       19.8000635849
  C        -1.1618226831       12.4454848527       22.1091469675
  H        -3.3082713136       12.4509836656       21.8929440243
  H        -2.7462945965       14.0444068162       22.1370317930
  C        -0.1387926108       13.4515965937       22.6268205638
  H        -1.3860177554       11.6816062977       22.8458183583
  H        -0.7954020599       11.9266807243       21.2240780155
  C         1.0751600834       12.7640471226       23.4156963352
  H         0.1152596494       14.0614202608       21.7582760190
  H        -0.5769874608       14.2480979315       23.2302342759
  C         1.5036799282       11.4590033472       22.8136222476
  C         0.6223098074       12.0743201254       24.6837664716
  C         2.1270595798       13.8322660425       23.6287452394
  C         1.2514429865       10.3531082924       23.5315067000
  C         2.0417937213       11.1083407248       21.5076689260
  C         0.7785711194       10.7333373065       24.7450048423
  C         0.1190942053       12.7356152149       25.7948580676
  H         2.3571789974       14.3639676562       22.7282702217
  H         1.9150636626       14.5650851576       24.4049816353
  C         3.4367497535       13.0998198800       24.0533568989
  S         1.4313071708        8.8572045073       22.6585841615
  C         1.9719746690        9.7394640782       21.2641360981
  H         2.3349370307       11.8482331750       20.7982498397
  C         0.2064318726       10.1231391992       25.8166397639
  H         0.0536242893       13.7789702648       25.9314770974
  C        -0.2561771341       12.0573544462       26.9522472745
  H         3.7916077316       12.3984929978       23.3397033534
  H         3.1219323483       12.5361722690       24.9668134929
  C         4.5664403718       14.0233756600       24.4711319245
  C         2.3313950437        9.1366719949       19.9090768961
  C        -0.2501280785       10.7572974661       26.9763402551
  H         0.1348138803        9.0141052547       25.7885802480
  C        -0.6805318466       12.4902258311       28.1734430781
  H         5.2950800668       13.4500038095       25.0351526495
  H         4.1113707767       14.7575550688       25.0812400975
  C         5.3884304584       14.5833751326       23.3055732653
  C         2.3431811163        7.7656237463       19.6689144658
  C         2.7052194562       10.0156062942       18.8146621660
  C        -0.7512065620       10.1125142884       28.2452200070
  C        -0.9708133466       11.4208923280       29.0136050815
  S        -0.9627200857       14.0485124674       28.8581639026
  H         6.2332507925       15.1390829200       23.6356922527
  H         4.7115828517       15.3091438709       22.9315209737
  C         5.8783223696       13.6274966981       22.1568695211
  N         2.1080921381        6.7893101309       20.6465014382
  C         2.6994373238        7.2337641655       18.4465398129
  C         3.0236046548        9.5151677319       17.5826645901
  H         2.6255603347       11.0975904111       18.9052677518
  C         0.3509149405        9.3159056108       29.0514983723
  C        -2.0837971328        9.3645991571       28.0662319486
  C        -1.4353441155       11.8351594934       30.2317966832
  C        -1.4658039295       13.2474069069       30.2678463545
  H         6.9378078828       13.7525598756       22.1185238743
  H         5.7544643840       12.6233177407       22.5139027241
  C         5.1482873913       13.8341801399       20.8149423536
  S         2.2499465043        5.3415955822       19.9295119837
  N         2.6748441247        5.8295920534       18.4445935811
  C         2.9868077054        8.0355207687       17.3147739578
  H         3.2114224467       10.2214826126       16.7479117022
  H         0.6088450844        8.4599106320       28.4272078453
  H         0.0421450838        8.8309849897       29.9801439166
  C         1.5819497924       10.1506948887       29.2184712773
  H        -1.8252016787        8.4874502237       27.5431677326
  H        -2.3929241383        9.0627387243       29.1098700306
  C        -3.1181826072       10.2858698215       27.4929819303
  H        -1.7310118889       11.0680402416       30.9267186353
  C        -1.8258539910       14.0385634045       31.5069907221
  H         5.1214043257       14.8728619027       20.6859278856
  H         4.1008837571       13.4904915623       20.7418645231
  C         5.9157099422       13.0902337756       19.6552771844
  C         3.1767201136        7.3753948220       16.0571362888
  H         1.8215655456       10.7262014036       28.3203577989
  H         1.5623181222       10.8693968794       29.9873560358
  C         2.7968748257        9.1985818583       29.4629218948
  H        -2.7934877151       10.7487911950       26.5393223087
  H        -3.5117653451       11.0379579454       28.2188604743
  C        -4.3064029424        9.3515005150       27.1557201463
  C        -1.6889762766       15.4619723380       31.6478054193
  C        -1.7629400116       13.3134295642       32.8153728817
  H         6.2944884468       12.1570279618       20.0777330092
  H         5.2267102036       12.9706563536       18.8559107588
  C         7.1428369367       13.8551668457       19.2231548786
  H         2.8288521761        6.3605601089       15.9963408860
  C         3.4311536714        7.9032422411       14.7511853167
  H         3.2387981257        8.9793981470       28.4965126810
  H         2.4144929711        8.2635886769       29.9048502640
  C         3.9471692210        9.8146550358       30.4019821177
  H        -4.0014694600        8.6814468675       26.3694398696
  H        -4.6240822941        8.6601190490       27.8860136136
  C        -5.5040198238       10.2564476111       26.6649504515
  N        -1.3481725905       16.3334998804       30.6274711508
  C        -1.9472085075       16.1405750364       32.7804793282
  C        -1.9796692753       13.9727794449       33.9712774682
  H        -1.6630334971       12.2285711081       32.8760194838
  H         7.0039582584       14.8637294222       18.8483880847
  H         7.8143907334       13.9281996425       20.0234521815
  H         7.7021170866       13.2527011120       18.5300272131
  S         4.0139588438        9.4423054408       14.2702419551
  C         3.2245034507        6.9654801118       13.5757091624
  H         4.1774764398       10.8289211192       29.9537599027
  H         3.4408352437        9.9341620320       31.3820880472
  C         5.2185241903        8.9364578223       30.5341938832
  H        -4.9633849120       10.9438146287       25.9751234261
  H        -6.0352066645       10.7752752200       27.4672479849
  C        -6.5034779898        9.5687140900       25.7803477167
  S        -1.3357259435       17.9348305151       31.1842651227
  N        -1.8580536661       17.4958610112       32.6504339878
  C        -2.1574115064       15.4175735546       33.9938127258
  H        -2.0306401628       13.3192959916       34.8594121398
  C         3.9589314576        8.8499152165       12.5820553602
  N         3.7021183265        7.5521461470       12.4220465321
  O         2.8813143295        5.8249675999       13.7123157919
  H         5.9044152748        9.3155672190       31.3022665537
  H         5.7684367546        8.9460624974       29.6134537474
  C         4.7831220969        7.4949968583       30.7467046038
  H        -5.9982840208        9.3360508835       24.8483816178
  H        -6.9903241849        8.7241154323       26.2028732624
  C        -7.4933956561       10.5288342379       25.2358973230
  C        -2.5742476768       16.2324831799       35.1173794515
  S         4.6482110758        9.6178834770       11.1405732086
  C         3.5998670885        6.7047603440       11.2389908747
  H         3.8302660068        7.5311927459       31.3936910457
  H         4.4765545317        7.1016775429       29.7515444579
  C         5.8112723545        6.5705019327       31.3409291639
  H        -6.9158148038       11.1097659733       24.4813629541
  H        -7.8327295170       11.1405810616       26.0352258549
  C        -8.6971872022        9.8656659191       24.5742986711
  H        -2.3384365429       17.2884156587       35.0208801642
  C        -3.2333324393       15.8742726676       36.2789987284
  H         4.3656485922        6.8740020417       10.5072511280
  H         3.7319728408        5.6508870260       11.5304471880
  C         2.1972328807        6.5926723397       10.6178492689
  H         5.3253204075        5.5765389890       31.6395958701
  H         6.1155956356        6.9620134652       32.2996446056
  C         6.9079470490        6.2391990923       30.3102862950
  H        -9.1422711584       10.4374259166       23.8081774330
  H        -8.4229093777        8.9140386315       24.2394735559
  C        -9.8483833709        9.6916480724       25.5882385679
  S        -3.6209395129       14.2672084833       36.6361451366
  C        -3.3868406646       16.7874037057       37.4536061538
  H         1.4976885681        7.0303512288       11.2691591696
  H         2.1220919286        7.1205137329        9.6884368958
  H         1.7817590292        5.5811110669       10.5689833054
  H         7.4078785022        5.3840607563       30.6922644026
  H         7.7470398799        6.9665523454       30.2399816111
  H         6.5088068544        5.9756328257       29.3979164624
  H       -10.5983197156        9.1555816970       25.0315691075
  H       -10.3164027716       10.4707549256       26.1578323588
  H        -9.3525060989        9.0624473578       26.3978440723
  C        -4.2085602884       14.8041968455       38.2139496494
  N        -3.9890467643       16.1666693712       38.4781603944
  O        -3.0083317159       17.9942318388       37.4485062768
  S        -4.8972431970       13.6383456615       39.4715835991
  C        -4.2246438307       16.7149763207       39.7960953774
  H        -4.4944443426       17.7339665867       39.6355894565
  H        -5.1482576583       16.3099800712       40.3227776568
  C        -2.9945294958       16.6551747964       40.8122686241
  H        -2.0423314149       16.7743268509       40.2731362610
  H        -3.2282585233       17.5931903233       41.3519164333
  H        -2.9319699524       15.7407135521       41.4620209645
  H         7.3411311343       11.4038851851        3.5715441946
  C         7.7924627473       10.4699716415        3.5611396655
  H         7.0854281140        9.7396886316        3.7481479308
  C         8.8407044627       10.5103468012        4.6517432285
  C         8.3296830244       10.2269551456        2.1367629286
  C         8.1313951150       10.8557940063        5.9432499849
  H         9.1848205391        9.4350191327        4.6099873788
  H         9.6004223312       11.2076374827        4.3650715175
  H         7.5513124004       10.4891401346        1.3685563819
  H         8.7255170553        9.2115435202        2.0366936138
  H         9.1262428946       10.8991647661        1.9416557237
  C         7.5564327031        9.5999353872        6.5816930845
  H         8.8147127413       11.4439282030        6.5783110159
  H         7.3221806288       11.5353931904        5.7564266073
  C         6.8853211961        9.9015210935        7.9529613743
  H         8.4097639349        8.8837832359        6.8284140475
  H         6.8809989856        9.0460460385        5.9672453242
  C         5.5887477998       10.7043589563        7.8332606051
  H         7.5639801377       10.4996158774        8.6057662953
  H         6.6999494961        9.0494475045        8.5036086606
  C         4.3845863574        9.9518460945        7.2855482138
  H         5.2768104728       11.0017011516        8.8153957720
  H         5.7820053931       11.5803650734        7.2317212473
  C         3.0138097078       10.6736784152        7.1960612828
  H         4.2484217024        9.0164884169        7.8124858819
  H         4.7775866149        9.6478870334        6.3393761709
  C         3.2804562641       12.0342770565        6.5725020146
  C         2.4225212389       11.4040603804        8.4036465919
  C         1.9173909977        9.9426750944        6.4002873267
  C         2.9522957313       13.1666282700        7.2775662647
  C         3.8144666622       12.3812760728        5.3420048998
  C         2.4273311568       12.7523870599        8.5244723194
  C         1.9582574881       10.7651718006        9.5738023497
  H         2.3016140091        9.6307907029        5.4411639654
  H         1.5912708930        9.0368131061        6.9075650076
  C         0.6481644629       10.8424960306        6.2144820994
  S         3.3044688288       14.6341708623        6.5576701769
  C         3.8558113488       13.7358513105        5.2064956208
  H         4.0553511894       11.5624287115        4.6672209302
  C         2.0128522231       13.3947507220        9.6623773394
  H         1.9748961087        9.7028809106        9.5995433359
  C         1.6172759779       11.3866631569       10.7090123617
  H         0.7738702026       11.8671380293        5.7491997364
  H         0.1454995550       11.2170227152        7.1378300564
  C        -0.4483492587       10.1580643320        5.3768178807
  C         4.2486148199       14.4349224986        3.9367129749
  C         1.6295282975       12.7345919605       10.8461032053
  H         2.0217698974       14.5033221415        9.7448025744
  C         1.1493475038       10.9193543714       11.9365204550
  H        -1.3507680241       10.8215661142        5.3770584922
  H        -0.8151496442        9.1362644351        5.6966931673
  C        -0.0199043739       10.0687803843        3.8874299624
  C         4.1368627571       15.7775264548        3.6427635499
  C         4.6500044196       13.5583432190        2.8000590278
  C         1.1720333776       13.3877592820       12.1442351536
  C         0.9029629209       11.9807272847       12.7966274883
  S         0.8474243033        9.5031224040       12.7301135471
  H         0.6338991288        9.2204306403        3.6869219047
  H         0.4671449145       10.9212798346        3.5372492911
  C        -1.1311190067        9.8361228519        2.9113051014
  N         3.8196639048       16.8034301051        4.5170500695
  C         4.3730724603       16.2938025604        2.3601197804
  C         4.9172732354       14.0861468612        1.5206397308
  H         4.9643761318       12.5601850543        2.9046448216
  C        -0.0854511028       14.2386199746       11.8675231809
  C         2.2352374463       14.2677084702       12.8502850115
  C         0.4996003414       11.6159866091       14.1234726711
  C         0.4171878124       10.2465947638       14.2244577019
  H        -1.3843006116        8.8009013342        3.0813868920
  H        -1.9923545504       10.5035389462        3.0403029135
  C        -0.6545664042        9.9256352157        1.4582890743
  S         3.9586580853       18.2058976457        3.7802248851
  N         4.2356427406       17.6532266065        2.2495990216
  C         4.7680763071       15.4865187830        1.2389941707
  H         5.2597404404       13.3220732270        0.7776235717
  H         0.1130568201       14.9222647691       11.0147009418
  H        -0.3212904026       14.9299419790       12.6931755451
  C        -1.1752231650       13.2663561393       11.3715554599
  H         2.5447189103       15.0600111679       12.1673911864
  H         1.8194986785       14.7805469429       13.6670553302
  C         3.4313142482       13.3580108098       13.2519472597
  H         0.3198813258       12.3697296328       14.9208265881
  C         0.0976928110        9.4548500762       15.4130698576
  H         0.0809172613        9.1326855630        1.3913778819
  H        -0.1458676767       10.8704688200        1.2203070253
  C        -1.6209748553        9.6883544207        0.3029051942
  C         4.9020614231       16.1807808344        0.0021119301
  H        -0.8096212032       12.5925728662       10.5758909797
  H        -1.4776388215       12.6044781811       12.1987511608
  C        -2.4123440803       14.0491151975       11.0888678726
  H         3.6796214969       12.6968916116       12.4315991308
  H         3.1472482937       12.7075955753       14.0877885219
  C         4.5926904462       14.2381141032       13.7074057891
  C        -0.0572440057        8.0231491776       15.4159596795
  C        -0.1552452718       10.0952387074       16.6977685138
  H        -1.8108203521        8.5877373359        0.2327005040
  H        -2.5680955740       10.2178746953        0.4734452046
  C        -1.0993930285        9.9807817516       -1.1068854171
  H         4.4149792345       17.0777174685       -0.0897742375
  C         5.3550771010       15.6979022526       -1.1937045255
  H        -2.2175060792       14.8221581438       10.2946006722
  H        -2.8663285133       14.5530085509       11.9359069816
  C        -3.5436898600       13.0948662362       10.6346181377
  H         4.8672970262       14.9700974526       12.9415633282
  H         4.1769542839       14.8517012114       14.4483317155
  C         5.8370082831       13.5026434688       14.1889653698
  N         0.0577239959        7.1769758748       14.2620569970
  C        -0.3904500885        7.3110599925       16.5553989869
  C        -0.4858165219        9.4078306252       17.8159010192
  H        -0.1272250038       11.1645054153       16.7012065859
  H        -0.0422367267        9.8175092248       -1.2878637227
  H        -1.2199261208       11.0164370234       -1.4677340323
  H        -1.6216987632        9.4498031217       -1.8445463418
  S         5.5862060265       14.0277154891       -1.5495551735
  C         5.4062518272       16.6187865432       -2.3479679124
  H        -3.0019006551       12.4337418864        9.9616130508
  H        -3.8410839316       12.4939087522       11.5277210787
  C        -4.7397601769       13.7457192394       10.0827328458
  H         6.4067064942       13.3920232798       13.2160603693
  H         5.5754194098       12.4451870387       14.4186469530
  C         6.5727778867       14.2874744351       15.2914366970
  S        -0.0836738921        5.5958439330       14.7405422563
  N        -0.5271561793        5.9559606180       16.3195815627
  C        -0.5959128829        7.9430001056       17.8428863733
  H        -0.5133719968        9.9307463812       18.7478668367
  C         5.8511195163       14.5559843853       -3.1939596295
  N         5.7917136511       15.8610930684       -3.4266662857
  O         5.2173234692       17.8340996271       -2.2312167131
  H        -5.1791228347       14.2050368762       10.8732541207
  H        -4.4542123998       14.5456530325        9.4144796737
  C        -5.6274609670       12.7505510935        9.3105313996
  H         5.9685020318       14.4458209726       16.1975645144
  H         7.5137399038       13.7417475502       15.5550538018
  C         6.8136434496       15.7614888348       14.9433647983
  C        -0.8338349444        7.1761499305       19.0442650623
  S         6.3455464802       13.5479846962       -4.5185722401
  C         5.9093519108       16.4912435063       -4.7694337281
  H        -5.1082603716       12.0932338295        8.6040618625
  H        -6.0208934946       12.1557894367       10.1126977805
  C        -6.8590747008       13.4271538031        8.7338525168
  H         6.0237356622       16.4262280304       15.2859514551
  H         6.9273795288       15.8326665578       13.8544782470
  C         7.9758161236       16.4108572300       15.6821279260
  H        -0.4485921023        6.1552479670       18.9593848203
  C        -1.2694095907        7.4333527614       20.3179639868
  H         6.6836794632       16.1561001707       -5.4549750495
  H         6.2056976781       17.5466123678       -4.4899673081
  C         4.5110135170       16.4772608613       -5.5386521372
  H        -7.0669661521       12.7740300725        7.9254634946
  H        -6.5532143773       14.4035141547        8.3352904006
  C        -8.1231014789       13.4905018336        9.7105200898
  H         8.0137429712       16.1290366639       16.7038727559
  H         8.8395817328       16.1320303403       15.1432411703
  C         7.6404196593       17.8575262012       15.6836289215
  S        -1.8509651230        8.9504929424       20.8887203952
  C        -1.2514877080        6.3630743030       21.3380998714
  H         4.0938863053       15.5280881987       -5.8909439928
  H         4.5104936158       17.2564525468       -6.3673025543
  H         3.7489244288       16.8726646026       -4.8248325904
  H        -7.8864573713       14.0427084736       10.6234900145
  H        -9.0281074615       14.0450708225        9.3773227103
  H        -8.4107715392       12.4846432273       10.0318280831
  H         7.1674102556       18.1377983365       14.7723212156
  H         6.9749651236       18.0556098603       16.4178428536
  H         8.5406759337       18.5427590043       15.7786517407
  C        -2.1147395961        8.1699375823       22.4164598005
  N        -1.8899533847        6.8288909436       22.4242292080
  O        -0.9465919733        5.1926788168       21.1269424102
  S        -2.7855448468        9.0165981108       23.8328887705
  C        -2.0419663822        6.0833828065       23.7132562808
  H        -1.9756444155        5.0641383769       23.4784693613
  H        -3.0136207616        6.3527932754       24.1803530835
  C        -0.9008626985        6.3297306723       24.6774918361
  H        -1.1636212683        6.6561413762       25.6059010130
  H        -0.3238199711        7.1868706087       24.2532037046
  H        -0.2266507840        5.4501054524       24.8237884381
