352
i =
  H        -3.2832342364       14.8140498651       16.5418870520
  C        -3.0433075421       13.7069766767       16.5705477795
  H        -3.9800740989       13.1273069791       16.8498215845
  C        -1.9373145022       13.4576250423       17.6773063081
  C        -2.6688361841       13.0415605100       15.2781633996
  C        -2.4098321180       14.0511387086       18.9253842996
  H        -1.7664344809       12.3665804910       17.8507005084
  H        -0.9749447778       13.8583995608       17.3835713228
  H        -2.5762992838       12.0243249215       15.4200913424
  H        -3.3798367247       13.2092896684       14.5083695860
  H        -1.7846608670       13.4459312009       14.8434041724
  C        -2.0810917776       13.0940982097       20.0769898722
  H        -3.5467307073       14.2710857025       19.0872204496
  H        -1.8968932595       15.0413673997       19.0417574249
  C        -2.2994382794       13.7651226133       21.4555450070
  H        -2.8005719847       12.2909570829       20.0249367629
  H        -1.0109757833       12.7729580446       19.9066988395
  C        -1.3299185646       13.1038151154       22.4269251439
  H        -3.2545589146       13.6274284459       21.9836814696
  H        -2.1215954441       14.8377198295       21.3841551299
  C         0.0630427374       13.8132527630       22.6171188943
  H        -1.7382264452       13.1143842652       23.4338732483
  H        -1.2787063115       12.0130824439       22.1734399090
  C         1.1565390723       13.0764598896       23.4216758320
  H         0.6053475840       14.1234789376       21.6932087282
  H        -0.0829618119       14.7451558242       23.0249324720
  C         1.4389880132       11.7533238030       22.7047970295
  C         0.6920279128       12.3595442029       24.6208289088
  C         2.4565212236       13.7856850763       23.5917097189
  C         1.0592687407       10.6360730393       23.4922451977
  C         1.8008767340       11.4185344610       21.4551998946
  C         0.5311346959       11.0080987117       24.7313797231
  C         0.1666766717       13.0240275809       25.7255152366
  H         2.8200309214       14.1300730283       22.6624559677
  H         2.2878557623       14.6886489227       24.0785725488
  C         3.6900085976       13.1602729024       24.3121691901
  S         1.4494278169        9.1348125432       22.7278193037
  C         1.9257613652       10.0386799324       21.2799337699
  H         2.0369250110       12.2167391427       20.7580858453
  C         0.1473041483       10.4401904836       25.8463490948
  H         0.1315703722       14.0754101709       25.7449162703
  C        -0.2959403150       12.4537230215       26.8634115868
  H         3.9855300746       12.2523011409       23.8489667098
  H         3.3471072470       12.8159669381       25.2500452575
  C         4.9832362099       14.0315092435       24.5176987204
  C         2.4995277728        9.3379778000       20.0629597896
  C        -0.2938607679       11.1164574115       27.0164814796
  H         0.2026627498        9.3563423110       25.8554339671
  C        -0.8013768693       12.8782616384       28.0672053956
  H         5.7313736602       13.5704130948       25.2866609937
  H         4.5607460730       14.9668904546       24.9214299167
  C         5.7883341007       14.3461881529       23.2403057238
  C         2.6198412889        7.9297325342       19.8391050911
  C         2.8840966330       10.2380642069       18.8963884302
  C        -0.7379729229       10.4395106922       28.2626751415
  C        -0.9337764324       11.7823541536       28.9575884285
  S        -1.0306794742       14.3969814543       28.8509097224
  H         6.5547916864       15.0479697701       23.4890791906
  H         5.2026994051       14.8182307992       22.5164994772
  C         6.5847801735       13.1907785294       22.6152051056
  N         2.3452353528        6.9411602758       20.8231804033
  C         2.9425850889        7.3391912300       18.6195910698
  C         3.2331040455        9.6473001111       17.7050858459
  H         2.8421359916       11.3136128844       18.8082110256
  C         0.4566025336        9.5868312515       28.9391547353
  C        -2.0456780702        9.5775287080       28.1610808357
  C        -1.3858540764       12.2528608790       30.2384376745
  C        -1.5153703731       13.6075811791       30.2812228411
  H         7.6948961156       13.3843211517       22.5819535160
  H         6.5817503025       12.2548968121       23.1857509150
  C         6.1432953866       12.9071476626       21.1516333672
  S         2.5630601189        5.4570236361       20.1589288054
  N         3.0173417161        5.9600981085       18.6558734738
  C         3.2189297005        8.1323985152       17.5178171788
  H         3.3589888608       10.3210847456       16.8373905562
  H         1.0086707748        8.9594132845       28.2153272190
  H         0.0558878712        8.9133890117       29.6989580084
  C         1.5092621324       10.4199529184       29.5798873595
  H        -1.9581776458        8.8290318788       27.3728458498
  H        -2.1238685726        9.1530171035       29.1608433057
  C        -3.2989616682       10.4353537782       27.8148814862
  H        -1.6596842104       11.5586815862       31.0541937824
  C        -1.7751455650       14.3818059732       31.5537174268
  H         5.1009808597       12.8791449655       21.0630114025
  H         6.5002624207       11.9008525583       21.0347226437
  C         6.7091451642       13.9574272459       20.0912280062
  C         3.5268046142        7.4923416464       16.2640820842
  H         2.0014285877       11.1183053590       28.8828593855
  H         1.0871436001       10.8761445931       30.4880015913
  C         2.6097422860        9.5431457724       30.0860020388
  H        -3.0115635858       11.0191885977       26.9983355967
  H        -3.5868921782       11.1011413075       28.6373163332
  C        -4.4728366136        9.6041774146       27.3199790053
  C        -1.7795992197       15.7829391564       31.6918270204
  C        -1.9311967479       13.6073755945       32.8243688578
  H         5.9110266916       14.7397542168       20.1362851207
  H         7.7624178659       14.2342656756       20.4146584147
  C         6.8290861462       13.3535820498       18.6699011245
  H         3.4459459773        6.4520216393       16.3787593035
  C         3.8478645948        7.9586609224       15.0009176294
  H         3.1471428811        9.2748240533       29.1691371570
  H         2.1315526607        8.5740367648       30.4751482001
  C         3.6312386888       10.2888140130       30.9981425370
  H        -4.1100144820        8.8892992736       26.5398834615
  H        -4.8854269906        8.9771362910       28.1385371324
  C        -5.5631056756       10.4190099733       26.7489363817
  N        -1.4952082629       16.7605018235       30.7207809676
  C        -2.0265999278       16.4249860818       32.8830901270
  C        -2.0471268953       14.2938546445       34.0081663265
  H        -1.9594033169       12.5055854081       32.8203666161
  H         7.2863558254       14.0790864934       17.9915696251
  H         7.5404725425       12.5209350182       18.6048951614
  H         5.8052342794       13.0886632562       18.3302378450
  S         4.2220466249        9.5518779050       14.6092995547
  C         3.8171017969        7.0055741926       13.8982492758
  H         3.7806179060       11.3499702941       30.8086809515
  H         3.1991241829       10.3179022770       31.9788866913
  C         5.0846610649        9.7392935675       30.9200028405
  H        -5.1924960001       11.2791105312       26.1566879385
  H        -6.0392864683       10.7983052040       27.6170366547
  C        -6.5885187933        9.7352153850       25.8234927378
  S        -1.5253394898       18.3151709215       31.3380271147
  N        -1.9510117993       17.8297406114       32.8398876841
  C        -2.2052375658       15.7366475663       34.0450044842
  H        -2.1630016615       13.7438961878       34.9309865430
  C         4.3658723268        8.9408126376       12.9569573329
  N         4.3159139574        7.6254297069       12.8032266900
  O         3.6786184336        5.8444961350       14.0539775205
  H         5.7116869201       10.4030732387       31.5597646855
  H         5.5777590725        9.8928572053       30.0177731143
  C         5.0494564662        8.2243901826       31.2592921368
  H        -5.9204073225        9.3380558567       25.0815057560
  H        -7.0397622291        8.8795834843       26.4674128158
  C        -7.6780914757       10.6068073555       25.2472730158
  C        -2.5302202503       16.5057658764       35.2132083464
  S         4.7541620323        9.9453627660       11.5078577750
  C         4.5082389084        6.8716124066       11.5347824388
  H         5.8707982001        8.0010040207       31.9500084450
  H         4.1302427888        8.1524784722       31.8823552987
  C         5.0359040914        7.2772795318       30.0356697469
  H        -7.3167964584       11.1435663196       24.3298114572
  H        -8.0727803158       11.3111376059       26.0243617067
  C        -8.8095417054        9.6763395550       24.6769953593
  H        -2.2880496739       17.5585942757       35.2161425214
  C        -3.0602224236       16.1904336527       36.4607088664
  H         5.4928453595        7.1413381491       11.0981989181
  H         4.6157080534        5.7858606381       11.6140478881
  C         3.2831465911        6.9653212301       10.5900658124
  H         5.6943042225        7.7556393316       29.3433228696
  H         4.0676770609        7.2773494752       29.5249240533
  C         5.4664506099        5.8259881353       30.3169627725
  H        -9.1491549861       10.2228912271       23.7492502446
  H        -8.3500885345        8.7194186548       24.3574404287
  C        -9.9697399954        9.5700812210       25.6724051067
  S        -3.7590513952       14.7337545327       37.0453012091
  C        -2.9560308482       17.2996401225       37.4920040628
  H         3.1248616844        6.0780656563        9.9096011035
  H         2.4379099358        6.8681496046       11.3251245341
  H         3.0403079332        7.8723930736       10.0659383329
  H         5.4959662886        5.1791798411       29.4918181728
  H         4.8148922685        5.4634616015       31.1412542401
  H         6.4520744548        5.7758653664       30.7852833663
  H        -9.8659807747        8.7812723298       26.4319024112
  H       -10.7983270508        9.2886808778       25.0646498635
  H       -10.0930895548       10.5060707978       26.2380741961
  C        -3.7899157009       15.4904299916       38.6029366474
  N        -3.5188325909       16.7986503317       38.6464239849
  O        -2.5808504939       18.4256449372       37.2849632022
  S        -4.5422811618       14.7038517618       40.0584552879
  C        -3.5664651711       17.6016269108       39.8913547795
  H        -3.5159751581       18.6783217075       39.6326328188
  H        -4.4196331694       17.3781438616       40.5088744602
  C        -2.2721599131       17.3483519612       40.6527279004
  H        -2.1424623460       18.2118187090       41.3247703429
  H        -2.4016272693       16.4435646515       41.1916351125
  H        -1.4317573128       17.3269743409       39.9644846530
  H         7.9521547005       11.2315363244        3.4605872386
  C         8.5740407338       10.3954751670        3.6904800153
  H         7.8058974769        9.6685624426        3.6188950126
  C         9.2578354156       10.3858367198        5.0526857444
  C         9.4264880038       10.3055915234        2.5117554783
  C         8.3999316380       10.7908549531        6.2330072906
  H         9.8568130381        9.5376804020        5.3486434472
  H        10.0387542200       11.1857237239        4.9242698446
  H        10.4476600506       10.5627206792        2.7702114950
  H         9.0237038584       10.9062436749        1.7285648963
  H         9.6030731956        9.3229105130        2.2141983974
  C         7.3791415877        9.6057766866        6.6317048347
  H         9.0876504537       10.9288072223        6.9945555411
  H         7.7823762996       11.6765501119        5.9681461730
  C         6.6290010968        9.8014822217        7.9359811534
  H         7.9731430856        8.7008674298        6.6755676841
  H         6.6770362899        9.5531583751        5.8373701797
  C         5.3531845206       10.5849017384        7.7346864366
  H         7.2844663255       10.3345060217        8.6748746947
  H         6.3548677046        8.9006423812        8.4102251758
  C         4.1399786787        9.7706087742        7.2220876754
  H         5.0833862624       11.1092397055        8.6446697141
  H         5.5689964613       11.3429883665        6.9979541930
  C         2.8503046776       10.6846110033        7.0884084209
  H         3.9799725447        8.9062997309        7.8994293970
  H         4.4586008977        9.4567667335        6.2220250913
  C         3.2037616616       12.0053656133        6.3780296809
  C         2.4061478914       11.3555113429        8.3342243400
  C         1.7273760537       10.0021349811        6.2937209810
  C         2.8618611451       13.1072204049        7.1968871759
  C         3.7931448119       12.3989837276        5.2000548585
  C         2.3794264399       12.7137722127        8.4453106196
  C         1.9224654727       10.7508103486        9.4571174911
  H         2.0227621910        9.6267996983        5.2735506071
  H         1.4448663278        9.2041932670        6.9377352310
  C         0.5078582600       10.8763011632        6.1483228066
  S         3.2200989464       14.5979025057        6.5046779050
  C         3.8302374415       13.7505482163        5.0561229161
  H         4.1156777968       11.6434511403        4.5329675123
  C         1.9361081491       13.3429259432        9.5647274395
  H         1.9142241605        9.6737944176        9.3852044146
  C         1.5028109623       11.3469851510       10.6131543293
  H         0.7590390187       11.8092000402        5.6965532402
  H         0.0425858156       11.0863689642        7.0803371905
  C        -0.4922804924       10.2849078878        5.1131645921
  C         4.3464349174       14.4793428990        3.8698536477
  C         1.5883290945       12.6897050792       10.7482383210
  H         1.9140546477       14.4246529094        9.5801299346
  C         1.0844136133       10.9290308876       11.8897094312
  H        -1.5407593231       10.5919949180        5.3441321285
  H        -0.5613302514        9.1995690068        5.1321803090
  C        -0.1670517449       10.7324359078        3.6677011572
  C         4.3214310901       15.8894479547        3.6294479320
  C         4.8096011923       13.7266691603        2.6630811511
  C         1.1422311541       13.3587467782       12.0481372117
  C         0.8675060798       12.0162524578       12.7347094746
  S         0.8555169289        9.3847299341       12.5991986849
  H         0.8344739032       10.4212322854        3.4746416350
  H        -0.1250198159       11.7889004376        3.6901055360
  C        -1.1694490012       10.3202631274        2.6058653735
  N         4.0622158998       16.8758531073        4.5423694590
  C         4.5760034902       16.4196394771        2.3353588109
  C         4.9794279637       14.2175203048        1.3830684990
  H         4.7856516221       12.6364867072        2.7444476070
  C        -0.1805045565       14.2405319157       11.8860450149
  C         2.2332429011       14.2361172092       12.7147176829
  C         0.3979514054       11.5422213388       13.9745750379
  C         0.4127475268       10.1639286898       14.0303884951
  H        -1.2846839987        9.2717195499        2.7302500453
  H        -2.1190849006       10.7933712281        2.7300692033
  C        -0.6489840851       10.4055576685        1.1867273207
  S         4.2992601430       18.2819223818        3.8464786564
  N         4.5562340250       17.7925650074        2.3367077985
  C         4.8153030377       15.6581121961        1.1800611269
  H         5.2069166750       13.5027808114        0.5759339171
  H         0.0685837280       15.2214466809       11.3564141084
  H        -0.4587838549       14.4145255411       12.8782640004
  C        -1.3186107919       13.4850356373       11.2619369053
  H         2.4914920935       15.0892540455       12.0577669921
  H         1.9612469758       14.7696099651       13.6400803656
  C         3.4056294805       13.3839853353       13.0713877641
  H         0.0675648073       12.2782073457       14.7269491813
  C         0.1958651965        9.4290380937       15.3060529423
  H         0.1767625216        9.7014180035        1.1116774068
  H        -0.3028827548       11.4120110016        1.1404096041
  C        -1.8363214771       10.0957080942        0.2867188325
  C         4.9711726981       16.3461273775       -0.0871222000
  H        -1.0555946542       12.7530400474       10.4943001747
  H        -1.7628090380       12.8671749097       12.0737934312
  C        -2.4335677355       14.4427864485       10.7532432196
  H         3.8967515246       13.0468347963       12.1981673893
  H         3.1364478954       12.5646176227       13.7156575530
  C         4.3979605002       14.1453311789       13.7997093823
  C         0.2809117872        8.0214106621       15.5519961234
  C        -0.1051744841       10.2460973304       16.5402717666
  H        -1.8204162014        9.0925605254       -0.1695651517
  H        -2.8818238669       10.2236372644        0.7940085508
  C        -1.8559393355       10.9534562556       -1.0263776238
  H         4.9681389382       17.4075154856        0.0269284615
  C         5.3816882503       15.9824729078       -1.3543729055
  H        -1.8992678359       15.2448515247       10.1681244862
  H        -2.8815887648       14.9281924326       11.6005502588
  C        -3.5002423451       13.8454439146        9.8125504922
  H         4.5867638319       15.0173347893       13.1938844924
  H         3.8995478634       14.4137608619       14.7134503533
  C         5.6421763692       13.4032064734       14.1072047871
  N         0.5576107575        7.1044517222       14.5557184396
  C         0.0518959038        7.4392215167       16.7629239517
  C        -0.3408073589        9.5802961294       17.7465095726
  H        -0.1581684150       11.3108240745       16.5267028683
  H        -2.3776007767       11.8637559667       -0.7209764046
  H        -2.3798394806       10.3425410620       -1.7263266299
  H        -0.8076880631       11.2964487674       -1.2630423520
  S         5.6229257913       14.3990787944       -1.9677550047
  C         5.4669757346       17.0616513128       -2.3100229603
  H        -4.0173158261       14.7219300600        9.3621644724
  H        -3.0614528964       13.3767692290        8.9186143242
  C        -4.5904030153       12.9884156817       10.4096696348
  H         6.2199978668       13.2030232796       13.2078413618
  H         5.4572720438       12.4588675636       14.6401195398
  C         6.5062484407       14.1738748824       15.0655397549
  S         0.6408961290        5.6087834299       15.2429191193
  N         0.2129632103        6.0797364647       16.7556188882
  C        -0.2573725301        8.1500498613       17.9046834308
  H        -0.4972610012       10.1406029840       18.6544193101
  C         5.8223726454       15.2773788284       -3.5543128375
  N         5.8002524860       16.5765616073       -3.5356133573
  O         5.2443990586       18.2374536700       -2.1004560245
  H        -4.1061074374       12.0801239410       10.7802046828
  H        -5.0060026710       13.4465398435       11.2589237422
  C        -5.7052642024       12.7901173933        9.4291330897
  H         5.8947247962       14.5790226001       15.8801277790
  H         7.1474227306       13.4179201533       15.5241491297
  C         7.3098244969       15.3067979808       14.3779069160
  C        -0.6006151735        7.3685564902       19.0501433074
  S         6.2508053289       14.5332360327       -5.1233899479
  C         5.7912088836       17.4349975212       -4.8023328506
  H        -5.0623273359       12.4333781048        8.5784379216
  H        -6.2895720487       11.8563837220        9.5474475986
  C        -6.4957375130       14.0031396004        9.0857283682
  H         7.0811300180       15.3062639309       13.2947816475
  H         8.4046198735       15.1026403884       14.4554550354
  C         7.0482035440       16.7445768552       14.8978301247
  H        -0.0140263150        6.4760073559       19.1325637373
  C        -1.1695620521        7.6473204843       20.2442297533
  H         6.4685521098       17.0818013261       -5.5812797226
  H         5.9654865689       18.4360487456       -4.5932588373
  C         4.4026070796       17.3586286457       -5.3539528641
  H        -6.3670457096       14.2693339749        8.0007717693
  H        -6.0829072885       14.7715911596        9.7831963140
  C        -7.9690109473       13.7486641996        9.4365913313
  H         6.8788986495       17.5204928966       14.1645822892
  H         6.1235289069       16.7260077604       15.4858633272
  C         8.1829547277       17.3238871128       15.8043627335
  S        -1.9335339524        9.1255665737       20.6418206930
  C        -1.2126233407        6.5492293860       21.2599792394
  H         4.3215067208       17.8508282933       -6.2856039765
  H         3.6549819923       17.8196337899       -4.6440828743
  H         4.0183176717       16.3651274995       -5.6572356444
  H        -8.0654344977       12.7717526265        9.9836042232
  H        -8.4661707970       14.5289531180        9.9226511761
  H        -8.5217077806       13.6660901302        8.4798208152
  H         8.3809121416       16.6579848093       16.6616090617
  H         9.0672126941       17.5021428609       15.2837591646
  H         8.0319688602       18.2957788061       16.2657618126
  C        -2.2108680664        8.4396915752       22.2614324131
  N        -1.7911626335        7.1117737618       22.3416542846
  O        -0.5749410766        5.5236603670       21.1656745626
  S        -2.7944344414        9.2507445146       23.7712402644
  C        -1.9879920230        6.2495642923       23.4629621314
  H        -1.9961429337        5.2073215627       23.2371362338
  H        -2.9238578459        6.4184460461       23.8864854242
  C        -0.8740887279        6.3830220882       24.4854383714
  H        -0.0866347539        7.0661643026       24.0258644049
  H        -0.4624346039        5.3820553828       24.6858334597
  H        -1.1348206075        6.7725409862       25.5563928967
