352
i =
  H        -2.1609456301       15.2888184921       14.7589211707
  C        -2.6385839574       14.6255569267       15.4688729888
  H        -3.5179252739       15.2204039307       15.7892471966
  C        -1.7511357054       14.4391282214       16.6947014585
  C        -3.0860946373       13.3107919507       14.8469333525
  C        -2.4023747218       13.8772062525       18.0068969012
  H        -0.8487081995       13.7515221500       16.4469073500
  H        -1.4254722596       15.4304953921       16.8440081488
  H        -3.8063074577       13.5412435533       14.0298971540
  H        -2.2750732138       12.7841915820       14.4060918868
  H        -3.6732288206       12.6673027557       15.5196554022
  C        -1.4020486880       14.1992902100       19.1252768651
  H        -2.5389101783       12.7707189978       17.8535371804
  H        -3.3643636095       14.3738837699       18.1660971621
  C        -1.9925245108       13.9565509297       20.5593123269
  H        -0.4915895005       13.6021083975       18.9708536395
  H        -0.9469223284       15.1752893507       19.1168342708
  C        -1.0324053159       13.3063056576       21.5715943545
  H        -2.9129490477       13.6175361625       20.5992388773
  H        -2.2851017781       14.9065056418       21.0383130341
  C         0.1339044364       14.2095738447       21.9713664803
  H        -1.7664400907       13.1743382402       22.3863405291
  H        -0.7238453902       12.3298861309       21.1538447289
  C         1.1356430665       13.4118332815       22.8562182452
  H         0.7124240599       14.4152505628       21.0807787367
  H        -0.2070478452       15.1574415804       22.5431140509
  C         1.4597954311       12.0658670344       22.2787137426
  C         0.5584764731       12.8006023480       24.1134972946
  C         2.3143206200       14.3009418370       23.2297923140
  C         1.0112246114       10.9849542697       23.0020451961
  C         1.9801164462       11.6571025759       21.0445182288
  C         0.5576384518       11.4446626183       24.2661929517
  C         0.0049046501       13.4563159901       25.2484908252
  H         2.6556056483       14.8506308486       22.3812920743
  H         1.9019559146       14.9975115230       23.8983787156
  C         3.3783351791       13.5265205103       23.9128225431
  S         1.3340582495        9.4515760329       22.3189582768
  C         1.9785605904       10.2936911990       20.9880626994
  H         2.3462215533       12.4332185467       20.3943011257
  C         0.0399353529       10.8661491317       25.4316108019
  H        -0.0104348599       14.5397049946       25.2489022933
  C        -0.4633354846       12.8574790191       26.3874441520
  H         3.6829874089       12.8462812478       23.0944984595
  H         3.0076440986       12.8280561266       24.6731503072
  C         4.5487461606       14.3603905986       24.3741374785
  C         2.4796586388        9.5072813838       19.8225478552
  C        -0.4984246014       11.5417876239       26.5602203207
  H         0.0863143077        9.7075641841       25.4443937115
  C        -0.8699734369       13.3116855578       27.5848922430
  H         5.1348979300       13.7797637091       25.1947859762
  H         4.1367783571       15.2904964442       24.8537372060
  C         5.4938510315       14.6998408624       23.1896959927
  C         2.4262969512        8.0960309295       19.6271305982
  C         3.0397574082       10.2929055510       18.7659716044
  C        -1.0459506560       10.8949103605       27.7840023530
  C        -1.2234966560       12.2513424081       28.4249683587
  S        -1.1865801309       14.8389495862       28.3006844073
  H         6.2820368309       15.3446984244       23.5866675496
  H         4.9047600140       15.2214843651       22.4220475475
  C         6.2067701585       13.5231446078       22.5084273484
  N         1.9842300634        7.1419614276       20.5395622655
  C         2.8215269031        7.5870484519       18.4371550137
  C         3.3737658783        9.7338263857       17.5442234433
  H         3.2782342941       11.3490824393       18.8928277822
  C         0.0098610684       10.0805008169       28.5478590012
  C        -2.3429190440       10.0709272486       27.6871113855
  C        -1.6435282511       12.7109957276       29.6909229760
  C        -1.6088562643       14.0977230411       29.8070908452
  H         7.3005602440       13.5705957798       22.6538856929
  H         5.8329313078       12.5973794525       22.9199252041
  C         5.8065729771       13.3300707562       21.0143068467
  S         2.2576668959        5.6687669062       19.7645580083
  N         2.6882411774        6.2048326079       18.3487198484
  C         3.1672364736        8.3204479228       17.3034870853
  H         3.7128243897       10.3404493492       16.6368256145
  H         0.4160638273        9.1822109913       28.0564526226
  H        -0.5449694869        9.8038897181       29.4598783473
  C         1.2508987192       10.9041405510       28.9563202941
  H        -2.2081419413        9.1389085222       27.0986695508
  H        -2.6105037193        9.7312188556       28.6547462566
  C        -3.5467783753       10.8673206184       27.1939268133
  H        -1.7633746320       11.9388085660       30.3472458452
  C        -1.9412084409       14.8006439842       31.0813152501
  H         5.3004734644       14.2150788433       20.6908704959
  H         5.1884787591       12.4452105453       20.8160095078
  C         7.1435508207       13.1982133235       20.2155381537
  C         3.2900133003        7.6010768037       16.0214595429
  H         1.8119774390       11.0154533511       28.0867583561
  H         0.9867720897       11.7520722916       29.5475474568
  C         1.9697708857       10.1278676923       30.0757675430
  H        -3.2344687476       11.4282903905       26.2225719459
  H        -3.8646949988       11.6475822986       27.9358813975
  C        -4.7200155761        9.8583259054       26.9773973697
  C        -1.8349466311       16.1992909334       31.3725902245
  C        -2.2730587401       14.0161022648       32.2924830272
  H         7.7658794421       13.9778650308       20.5274151917
  H         7.6364588908       12.2217872962       20.2915241817
  C         6.8586421328       13.5117431266       18.7080688389
  H         3.2857447508        6.5121659294       16.0408391667
  C         3.6133669512        8.0794578725       14.8157146296
  H         2.1436914309        9.1101919453       29.6846445652
  H         1.4033038420       10.1157234005       30.9760424862
  C         3.2335150128       10.9386827268       30.4892528358
  H        -4.3661896317        8.9406488324       26.5111762796
  H        -5.1024266529        9.6372397606       27.9519349408
  C        -5.7588933609       10.4312088001       26.0445798981
  N        -1.6473133243       17.1128786022       30.3713632113
  C        -2.1406942607       16.8045721465       32.5422368521
  C        -2.4025650544       14.6573577679       33.5360203559
  H        -2.3591220300       12.9524427781       32.2394318012
  H         7.4475402439       12.7313313043       18.1767599373
  H         5.8098802723       13.5058517089       18.3833261826
  H         7.4566849377       14.3653121735       18.2869762288
  S         3.7679284066        9.7522709411       14.3169428631
  C         3.6902870925        7.1178066113       13.7029237801
  H         3.2356112130       11.9398679543       29.9757419245
  H         3.0051750625       11.1453328718       31.5616231233
  C         4.6770478792       10.2942515843       30.4995773510
  H        -5.6005664264       10.0335170870       25.0836868945
  H        -5.6467054784       11.5450876982       25.9217023741
  C        -7.1416989865       10.1910993905       26.4819415940
  S        -1.5756238232       18.5950700676       30.9564272334
  N        -2.1116544087       18.2248479502       32.4566141735
  C        -2.4352214912       16.1157607558       33.7458054574
  H        -2.5271219968       14.0219692609       34.3838626374
  C         4.0071720569        9.1737924593       12.6397997674
  N         3.9310960286        7.8121825232       12.5546343830
  O         3.5172890169        5.9584537290       13.8851151771
  H         5.3609915271       10.8215888252       31.1685861183
  H         5.2472013388       10.3466151950       29.5556994241
  C         4.5142950822        8.7359392930       30.6316594216
  H        -7.2291507246        9.1419957605       26.7502973420
  H        -7.3735782235       10.8421275061       27.3104631395
  C        -8.2470220440       10.3470706515       25.4362357689
  C        -2.7519959123       16.7717745269       34.9440229211
  S         4.2786237242       10.2259120699       11.2033661235
  C         3.9474308373        7.0942441335       11.2391476234
  H         3.7880036375        8.6006109380       31.3879022295
  H         4.1546892113        8.2939984672       29.7345334841
  C         5.8532831415        8.1852787040       31.0835897306
  H        -8.0290448856        9.7530492922       24.5826269964
  H        -8.4052498461       11.3075375670       25.0515063170
  C        -9.5257390061        9.6514320115       25.9027520346
  H        -2.5052985258       17.8764232644       34.9304158043
  C        -3.2754240843       16.2911884536       36.0845020350
  H         4.4366791007        7.6715761990       10.4795827569
  H         4.5611985986        6.1688919462       11.3622499591
  C         2.5514261528        6.9085375667       10.6200910761
  H         5.5731941709        7.5493631378       31.9178353173
  H         6.5018410817        8.8784850449       31.5964094101
  C         6.6674604692        7.5314061022       29.9607460929
  H       -10.4111792786        9.6229521248       25.1236243516
  H        -9.4741889151        8.5783037418       26.1353599425
  C       -10.1306988446       10.3581592662       27.0894319310
  S        -3.8228359717       14.7002805126       36.5347458602
  C        -3.3094628673       17.2194484887       37.2286179917
  H         2.4963523297        5.9641643290        9.9833121695
  H         1.7484070201        6.7988889277       11.3948305199
  H         2.3446435750        7.5899033734        9.8016735637
  H         7.6959182174        7.2692319953       30.2195734638
  H         6.7714453348        8.1490096647       29.0795134238
  H         6.2070922688        6.6233446490       29.5167657150
  H        -9.9313391873        9.7329975578       27.9476171803
  H       -11.2104696438       10.4795056778       26.8288772921
  H        -9.9465094126       11.3776018113       27.2956511922
  C        -4.2019070486       15.3587235479       38.0983289373
  N        -3.9290347319       16.6808081100       38.2447656034
  O        -3.0050221819       18.4327799912       37.1593797758
  S        -4.6471742375       14.5751042611       39.5485467001
  C        -4.1546218405       17.4961378550       39.4467185090
  H        -4.4073417237       18.6077938858       39.2748452541
  H        -5.0629869390       17.0209877010       39.9160366733
  C        -2.9045133550       17.3499979295       40.2907567185
  H        -2.7745172334       18.3073821807       40.9071670934
  H        -2.9210593302       16.5662567301       41.0300293936
  H        -2.1392528691       17.2531642896       39.5696552279
  H         7.4505811133       11.4353428055        3.4002431336
  C         8.1342050215       10.6537981517        3.6687792723
  H         7.4356893210        9.7865083470        3.6449568649
  C         8.7940720171       10.6896059798        5.0498433109
  C         9.0564060372       10.5952795853        2.4670138551
  C         7.8407071433       10.9460422976        6.2008107486
  H         9.2393891151        9.7173629587        5.3168679624
  H         9.5949048450       11.4353101575        5.0410436559
  H         9.0519176587        9.5236893383        2.0113120732
  H        10.0270457953       10.9758348730        2.7599575081
  H         8.5212510113       11.3395179781        1.8138275824
  C         7.0759771646        9.7288148220        6.6813349794
  H         8.4587109561       11.3033308332        6.9571211652
  H         7.0832226301       11.5827369290        5.7650180876
  C         6.0746916687        9.7621594719        7.8622546187
  H         7.9321723752        9.0564109848        6.9155432137
  H         6.6646188345        9.1507201182        5.8023081762
  C         4.8060378645       10.5551815487        7.5011549576
  H         6.5402646637       10.1283341952        8.7534145885
  H         5.6462622360        8.7843105000        8.1423343105
  C         3.5733782195        9.7761054303        7.1753347130
  H         4.6313740794       11.2033832274        8.3354357422
  H         5.0699834888       11.2384905966        6.6720900230
  C         2.4704392257       10.7873201723        6.8569304529
  H         3.4448486559        9.0769450051        8.0430673535
  H         3.7351161489        9.1459658183        6.2710761923
  C         2.8989624286       12.0885030680        6.2509194895
  C         2.0134777585       11.5252706701        8.1045737847
  C         1.2546729276       10.2111120919        6.0577556463
  C         2.6677867745       13.2032417560        7.0698617374
  C         3.4245622104       12.5169061573        5.0330323297
  C         2.0704269806       12.8301499344        8.2299901453
  C         1.5839918507       10.9312439047        9.2641975334
  H         1.6875399736        9.6854669925        5.2153766608
  H         0.8904564781        9.4717449883        6.7679461676
  C         0.0218316343       11.1400415740        5.6653137729
  S         3.1180128561       14.6791073647        6.2555910889
  C         3.5139815137       13.8386715860        4.8368018106
  H         3.5778354451       11.7889388184        4.2315162459
  C         1.6705381898       13.4430791577        9.3682153232
  H         1.6440556471        9.8450229737        9.2286451365
  C         1.2650554788       11.5438300380       10.4446533105
  H         0.2671574294       12.1765214817        5.3761685931
  H        -0.4224200392       11.4064176538        6.6355675391
  C        -1.0258974735       10.5491895922        4.6732231962
  C         3.9367429704       14.6056931252        3.6260110342
  C         1.2623687884       12.9071250236       10.5547833050
  H         1.5689657124       14.5218893142        9.3081936893
  C         0.8551498666       11.1821166363       11.7301195911
  H        -1.8909868341       10.9582887812        5.0034578272
  H        -1.0473700651        9.4805855025        4.7289517580
  C        -0.7576893105       10.9984638457        3.2112831449
  C         3.7690760844       15.9929534803        3.3138623138
  C         4.6779365764       13.7809614701        2.6481892354
  C         0.9010853752       13.6387017943       11.8076969382
  C         0.6485137514       12.3056970470       12.4958399046
  S         0.5633347655        9.6396101752       12.5461444194
  H         0.1414174277       11.5762154479        3.1036626293
  H        -1.6060822570       11.6487045798        2.9567314847
  C        -0.6409582665        9.7915470073        2.2222597352
  N         3.3086922976       16.9988559877        4.1832945439
  C         4.2048095932       16.4708828462        2.1383859819
  C         5.0799363499       14.2958315296        1.4364059132
  H         4.9873765680       12.7444848953        2.9034966782
  C        -0.3973069221       14.3360208003       11.7291424087
  C         2.0993804318       14.3740043038       12.4654343482
  C         0.1997920368       11.8710935978       13.8146930827
  C         0.1971279207       10.4602516277       13.9806717514
  H         0.1281626563        9.0994547209        2.6515058025
  H        -1.5929852033        9.3046531462        2.1767902900
  C        -0.2212980414       10.0014309758        0.8063283245
  S         3.2819370767       18.3986513307        3.3608667556
  N         3.9483014658       17.8494101754        1.9335478293
  C         4.6947631316       15.6746132538        1.0371690467
  H         5.7983754804       13.5884063904        0.9304886438
  H        -0.2763116714       15.1934448457       11.1913599890
  H        -0.4686082814       14.8228645994       12.7410778284
  C        -1.7175119581       13.6261843281       11.3087332798
  H         2.5823647336       14.9962721924       11.7804722973
  H         1.7956535498       15.0788016678       13.1895648569
  C         3.2289603068       13.5800420884       12.9834477930
  H         0.0656283455       12.6226635301       14.5730957098
  C        -0.1707633234        9.7160378534       15.2926468157
  H         0.5221882436        9.2310953042        0.4405830347
  H         0.2855750708       10.8843725142        0.7097275095
  C        -1.4188819093       10.0639013537       -0.0935948980
  C         4.9132338162       16.3320881819       -0.2738229944
  H        -1.7012537791       13.3174725763       10.2524930705
  H        -1.8625306269       12.8085386935       11.9694186182
  C        -2.9211859373       14.4932983468       11.5446634095
  H         3.5802260056       12.9102912482       12.2345210954
  H         2.7665266281       13.0224661993       13.8920940819
  C         4.3119881493       14.5240229510       13.6347702035
  C        -0.1311749263        8.3092530974       15.4645796349
  C        -0.3425538876       10.4564497872       16.5429955432
  H        -1.8707579482        9.0543682028        0.0068990002
  H        -2.2289574891       10.5878688642        0.4342362032
  C        -1.0442684050       10.5555741915       -1.5577451101
  H         4.6694507011       17.4003701523       -0.3139167554
  C         5.2577436166       15.7976595612       -1.5403391324
  H        -2.7232336717       15.3257784047       10.9213700871
  H        -2.8184549763       14.6767067783       12.5766459309
  C        -4.2780927587       13.9369495419       11.0542491576
  H         4.5473739720       15.2544163990       12.8360329087
  H         3.8587506129       15.1029325480       14.4552979931
  C         5.5684648859       13.9878657625       14.3450242211
  N         0.1179081241        7.3734807755       14.4185162680
  C        -0.4082631237        7.6657656716       16.6387289475
  C        -0.5599181450        9.8424715388       17.7770547419
  H        -0.4402688421       11.5760144389       16.4235967085
  H        -1.8180206352       10.3895643033       -2.3542348070
  H        -0.1624211264        9.8447090012       -1.7559765360
  H        -0.6671198525       11.6157121023       -1.5338408641
  S         5.5505760242       14.1527098073       -1.7893485269
  C         5.4223272586       16.6838102546       -2.6396838641
  H        -4.1167768652       12.8222134488       10.9638282174
  H        -5.1529174714       14.2551636012       11.6155302279
  C        -4.7011719285       14.4731099096        9.7167718292
  H         5.5798841132       12.9283350568       14.3652870348
  H         5.5633979750       14.1795176335       15.4608661631
  C         6.8614988641       14.3330424766       13.7018423466
  S         0.0856821611        5.8762661330       15.0546929135
  N        -0.4849476625        6.3148725356       16.5667284951
  C        -0.7474415029        8.3491299925       17.8258311081
  H        -0.6055682142       10.4457623086       18.7083813777
  C         5.8693343916       14.6277228549       -3.4583584125
  N         5.8986731710       15.9877852047       -3.6985211544
  O         5.2021940352       17.8915595475       -2.5618608634
  H        -5.1681867486       15.4286165817        9.9432139672
  H        -3.9252280258       14.7316121276        9.0404893567
  C        -5.6483182510       13.5037394270        8.8955846161
  H         7.4800155615       13.4830850072       13.8438454191
  H         7.0090312905       14.5258914871       12.6668195215
  C         7.5215658615       15.4613226707       14.3658548563
  C        -0.9517194643        7.5752511450       18.9963978159
  S         6.7960651600       13.6553079986       -4.5626317856
  C         6.0712344403       16.6795033608       -5.0011591615
  H        -5.3396505753       13.6245200695        7.8414350263
  H        -5.4538723213       12.4658163290        9.1413151617
  C        -7.0990017448       13.9055094489        9.0506575377
  H         8.5468967276       15.6674811218       14.1378937484
  H         7.5598363054       15.3763125247       15.4745786950
  C         6.9646196483       16.8237742245       13.9258717417
  H        -0.7511984380        6.5443088367       18.9747862535
  C        -1.4356851474        7.9826635755       20.2224631755
  H         6.8024335821       16.3224339410       -5.6848810104
  H         6.4410704922       17.6578471401       -4.6685233549
  C         4.6827223437       16.7749021465       -5.7989660245
  H        -7.5687429057       13.4255338793        8.1944480105
  H        -7.2224514653       15.0135504485        8.9214074017
  C        -7.7672850986       13.4657722068       10.2953932498
  H         7.4685515228       17.1677392455       13.0206047153
  H         5.9570045649       16.6477004034       13.6233870292
  C         7.0856563323       17.9255212955       15.0697173616
  S        -1.9382180629        9.5477454642       20.6514062627
  C        -1.6329293736        7.0273369800       21.2997256065
  H         4.5851041084       16.0063409220       -6.5660043673
  H         4.3759018839       17.7467270646       -6.1332374410
  H         3.9018800106       16.3675314545       -5.0521267624
  H        -7.0721959027       13.4502080766       11.2277182770
  H        -8.5349878789       14.0744916000       10.7068882125
  H        -8.0872650395       12.5068829112       10.1395412970
  H         6.3028159087       17.6567370811       15.7710893890
  H         8.0783020450       17.8256016708       15.4495402943
  H         6.7625569858       18.8165334987       14.5870088454
  C        -2.3871497426        8.9384651345       22.2626004766
  N        -2.2682247096        7.6004207762       22.2984465346
  O        -1.4770589074        5.7840502212       21.2125403408
  S        -2.8474639963        9.8840676007       23.6544970673
  C        -2.6749941181        6.8171609121       23.4621623730
  H        -3.1118958383        5.8915911963       23.1219415279
  H        -3.5734280358        7.2863307749       23.9794174507
  C        -1.3625959144        6.7556185633       24.4108269036
  H        -0.4850358441        6.3316423046       23.9258125588
  H        -1.5668183316        6.1921482087       25.2412670109
  H        -1.0451228331        7.7509571997       24.7950365365
