352
i =
  H        -3.9451253062       14.8055904202       17.0316221035
  C        -3.8076123715       13.7468559796       16.7865710934
  H        -4.7923212599       13.3843545300       16.8788430951
  C        -2.8157032065       13.1963010673       17.7440338343
  C        -3.3505449084       13.5151374831       15.3671554146
  C        -3.3248549875       13.2289571381       19.1723512607
  H        -2.7621075159       12.1657778189       17.4557810949
  H        -1.7950631627       13.5411734647       17.6757538815
  H        -4.2400913521       13.5421769873       14.7455436673
  H        -2.6550028578       14.3406942314       15.0106792536
  H        -3.0598439456       12.4223550202       15.1483835970
  C        -2.2972637531       12.5824676773       20.0792256574
  H        -4.1437419221       12.5466607507       19.1426637912
  H        -3.7441240492       14.2234439554       19.5780088771
  C        -2.7212557438       12.8060296812       21.5104486960
  H        -2.2211032752       11.5679219930       19.7550877644
  H        -1.2912272915       13.0506086143       19.8273905647
  C        -1.4559266065       12.3674841463       22.3122735230
  H        -3.5742100985       12.0693502904       21.5783837980
  H        -3.0098430431       13.8048282510       21.6503653519
  C        -0.3288245482       13.3607162922       22.5216651145
  H        -1.7190470924       12.0736972234       23.2978092463
  H        -1.1418953255       11.4563884428       21.9155941410
  C         0.9032247249       12.7635767265       23.2983061546
  H        -0.0343695256       13.8660408369       21.6328971540
  H        -0.5823177089       14.2311954427       23.1291525118
  C         1.3086855755       11.5081916051       22.6127910080
  C         0.4477849441       12.0861854657       24.5506677413
  C         2.0987540400       13.7678066726       23.6201358325
  C         1.1397950476       10.4026573737       23.4621791508
  C         1.7306684354       11.0739151772       21.3764100966
  C         0.5970868980       10.7622677580       24.6888079809
  C        -0.0963570077       12.7545651174       25.6850023826
  H         2.3411385702       14.1297765405       22.5958912244
  H         1.6527470699       14.6055399582       24.2273683596
  C         3.3686786373       13.1337846095       24.2438629819
  S         1.4923668975        8.8941878298       22.7932581439
  C         1.9550246031        9.7460563725       21.2928344980
  H         1.9096889008       11.8450099306       20.5969230766
  C         0.2276041709       10.1169238714       25.8710894829
  H        -0.1443288556       13.7930446704       25.5969231440
  C        -0.4914881000       12.1267125762       26.8323437960
  H         3.7091121100       12.3856169350       23.5679046067
  H         3.2113363211       12.6752807334       25.2306945662
  C         4.4932219749       14.1123114151       24.4526035607
  C         2.4224174341        9.0361608775       20.0463872772
  C        -0.3229156482       10.7649240470       26.9874656458
  H         0.2535930338        9.0309513150       25.9274927116
  C        -0.8765544966       12.4865562853       28.0918494979
  H         5.1893994264       13.7152252800       25.1985181725
  H         4.0715533407       14.9860851311       24.9522031765
  C         5.2055882935       14.7066231923       23.2189742609
  C         2.3597595769        7.6286667461       19.8338085583
  C         2.8059675854        9.8294174609       18.8320835240
  C        -0.8552218011       10.0254476453       28.2397899721
  C        -1.0835501810       11.4228002098       28.8858304389
  S        -1.2079718610       13.9987052591       28.7561345007
  H         5.7684058022       15.6553865828       23.6129565095
  H         4.3982422377       14.9898521198       22.4625348260
  C         6.1421632088       13.6397663559       22.6597273835
  N         1.9951510023        6.6797453462       20.7947095789
  C         2.5334620871        7.0121303660       18.5959642906
  C         3.0212625379        9.2508722657       17.5885589851
  H         2.8033219795       10.8521690133       18.8999855974
  C         0.2774455259        9.3285070629       29.0199655874
  C        -2.1564831418        9.2160854154       28.1726920395
  C        -1.5357117657       11.8330615343       30.1516677813
  C        -1.6006319299       13.2119137201       30.2555190566
  H         7.1058526233       14.0643097307       22.3034371001
  H         6.3393946108       13.0485852599       23.5919822054
  C         5.5764666545       12.7193590800       21.4974334991
  S         1.9720233715        5.1865250582       20.1328586771
  N         2.4057599136        5.6277874334       18.6057914899
  C         2.7920946113        7.7958294700       17.4198847587
  H         3.2716428819        9.9120040256       16.7611824134
  H         0.5271123831        8.3638442501       28.5823216603
  H        -0.1229659000        9.0298738654       30.0197158358
  C         1.5804739223       10.1232523961       29.3163751651
  H        -1.8374523967        8.3662843673       27.5518338647
  H        -2.4856258501        9.0056960841       29.1770740329
  C        -3.3894363595       10.0574984521       27.5921293270
  H        -1.5304146117       11.1401518956       30.9800821351
  C        -2.0059481549       13.9748683739       31.4844874814
  H         4.5620521658       13.0044907958       21.3106439492
  H         5.6725217541       11.6645332335       21.8190061721
  C         6.3642284306       12.9348410642       20.1413611993
  C         2.9938023912        6.9949181713       16.2305283392
  H         1.9560158280       10.5484744594       28.3851744908
  H         1.3456134691       11.0588332559       29.8517910436
  C         2.7481432036        9.2988822330       29.9151151895
  H        -3.1362378572       10.4308024414       26.5965390312
  H        -3.6143403364       10.8580820298       28.2391702589
  C        -4.6123725099        9.1020793607       27.4015086324
  C        -2.0784902457       15.4233300189       31.5975975111
  C        -2.2549144137       13.2091751173       32.7551733514
  H         5.8769536059       12.2144491926       19.4418643784
  H         6.1404684431       13.8676376612       19.6959851741
  C         7.8575403904       12.6644272180       20.0777535486
  H         2.8828462739        5.9402841784       16.2812587251
  C         3.4001388514        7.3455598194       14.9162493073
  H         2.9141338896        8.4055210563       29.3354452720
  H         2.4823976620        8.9189682058       30.9046864199
  C         4.1639767165        9.9159516474       29.8850819371
  H        -4.3341432817        8.2851793144       26.6565422912
  H        -4.8459170541        8.5284487720       28.2905349084
  C        -5.8461965593        9.9336895504       27.0152705051
  N        -1.6722691998       16.3949541246       30.6724912819
  C        -2.4453124889       16.0613701131       32.7481351476
  C        -2.6844964197       13.9101766766       33.9345979124
  H        -2.1746451573       12.1762049701       32.7402043796
  H         8.0607820613       12.2326711003       19.1051969790
  H         8.3751327976       13.6476507265       20.1500956967
  H         8.1506319031       11.9557066281       20.8443298279
  S         3.6519333553        8.8822455254       14.3659409270
  C         3.5540746615        6.2227381097       13.9006936371
  H         4.3217360434       10.3489163673       28.9303309037
  H         4.3220356613       10.7975890489       30.5217876800
  C         5.3160662402        8.9312843056       30.1264608456
  H        -5.5137584871       10.8724588383       26.5262826646
  H        -6.3983126905       10.2014250488       27.9407651692
  C        -6.8439741692        9.1812646149       26.1654148888
  S        -1.7459190975       17.8667598606       31.3394716368
  N        -2.3575055129       17.4494209972       32.7271414815
  C        -2.7658529656       15.3916190708       33.9477348491
  H        -2.8557775511       13.4516331942       34.8620729887
  C         3.9852222184        8.1735220118       12.7915059277
  N         3.8963091821        6.8032973373       12.7091517887
  O         3.3806340705        5.0370179907       14.1510449038
  H         6.2863300526        9.5462468107       30.1021753629
  H         5.3666440547        8.3034152473       29.2704232558
  C         5.2794705634        8.1351897054       31.4186838482
  H        -6.3659870255        8.4657476834       25.4693676957
  H        -7.5492469796        8.6331315610       26.7949910565
  C        -7.6968112208       10.1123064975       25.2622770298
  C        -2.9336416496       16.1760467265       35.1470626473
  S         4.2273467611        9.0962006014       11.3194518196
  C         3.7699952129        6.0228739596       11.4462899042
  H         5.9720601904        8.6222577334       32.1153005983
  H         4.2704645125        8.0756315211       31.8648194826
  C         5.5473240673        6.6356288956       31.2683534899
  H        -7.1391815668       10.2049163327       24.3229319399
  H        -7.7611742110       11.1764095731       25.7118051688
  C        -9.1096928627        9.6294382398       24.9784996808
  H        -2.7464931525       17.2468578915       35.1147190953
  C        -3.2851152990       15.7539453264       36.4208923446
  H         4.2214632419        6.6238437483       10.6100272103
  H         4.1783301283        5.0058557344       11.4671583805
  C         2.2864619215        6.0206141581       10.9502902255
  H         4.6651770492        6.3037370361       30.7746204668
  H         5.6039753331        6.0799972569       32.1484335153
  C         6.8334216923        6.2160242169       30.4266493562
  H        -9.3755055339       10.0946384313       24.0113741945
  H        -9.0178335541        8.5536075065       24.7569430368
  C       -10.1848083672       10.0078416397       25.9396740599
  S        -3.8389194249       14.2814132299       37.0149541168
  C        -3.2671528990       16.8430603064       37.4410772109
  H         1.6842130532        5.4314927316       11.6777100305
  H         2.0062548722        7.1153972715       10.9264919798
  H         2.0105841579        5.5048311372       10.0047401827
  H         6.6774965328        5.2237805207       30.0021760368
  H         7.7946270819        6.2611346364       30.9806537961
  H         7.1467259270        6.9494082924       29.6340840084
  H       -10.2833646400        9.1946622392       26.6072293153
  H       -11.0507408850        9.9674668692       25.3098087650
  H       -10.0800898368       10.9022712635       26.5281629176
  C        -4.2094618873       15.1359750600       38.5022616424
  N        -3.9079014042       16.4726952241       38.5174339032
  O        -2.6662038722       17.9315748355       37.2909209512
  S        -5.1526757933       14.6655081485       39.8738119030
  C        -3.9704841482       17.3516642660       39.7447879366
  H        -3.9885027653       18.3296576300       39.2216688544
  H        -4.9674316993       17.4186059965       40.2494246061
  C        -2.7484715611       17.2143154478       40.5776576747
  H        -2.8866030439       16.4884801848       41.3086730040
  H        -2.0030023844       16.9005765938       39.8735591989
  H        -2.5756769289       18.1698274122       41.1490251035
  H         7.5742121510       11.5058935746        3.4350056392
  C         7.9867145097       10.5472030164        3.6344418060
  H         7.1802179840        9.8607696282        3.5096556447
  C         8.6888427654       10.3922212349        4.9428684609
  C         8.9236332411       10.2905596778        2.4428157647
  C         7.8650742944       10.6335777742        6.2098940428
  H         9.2426006965        9.4459587673        4.9743922874
  H         9.2709687635       11.2482965749        4.8834502129
  H        10.0255773366       10.5324634047        2.6066473926
  H         8.6389271722       10.9247431402        1.6104214350
  H         8.7775523447        9.2978162757        1.9925707780
  C         7.1410366561        9.3549170965        6.5481151017
  H         8.4432121835       11.1814823476        6.9726024373
  H         6.9947147313       11.2025557046        5.9084989346
  C         6.2139023526        9.5018795359        7.7682936313
  H         7.8686454074        8.5487821600        6.7135034396
  H         6.5554014285        9.0740919829        5.6923837923
  C         4.9528936127       10.3981316434        7.6571512393
  H         6.7966740514        9.9260270117        8.5639791732
  H         5.8852518239        8.6106472956        8.2782910459
  C         3.6975273297        9.6490774572        7.1874381976
  H         4.7384224329       10.8628001823        8.6527678983
  H         5.3237135696       11.2539692243        7.0462549696
  C         2.4130930545       10.4967135350        7.0896155954
  H         3.5579455299        8.7573850730        7.8307289459
  H         3.8704878538        9.1222415289        6.2518219581
  C         2.6838111260       11.8080621517        6.3913698729
  C         1.9439784281       11.1773325515        8.3066954069
  C         1.3830846376        9.7179633205        6.2186442121
  C         2.5059638142       12.9056495698        7.2298654952
  C         3.2733498674       12.2191903862        5.1985433889
  C         1.9952506265       12.5354926182        8.4249403715
  C         1.5558160839       10.6015154041        9.4747189319
  H         1.9267569344        9.1530097349        5.4581089830
  H         1.1253534874        8.9226279677        6.8876915504
  C         0.1081879024       10.4862258864        5.7958006727
  S         2.9549900009       14.4347286990        6.5346237505
  C         3.6025268014       13.5675813741        5.1457087021
  H         3.4821004748       11.4303075189        4.5221566963
  C         1.6348592581       13.1226051053        9.5901617087
  H         1.6463597821        9.5318514770        9.4018205765
  C         1.1686977287       11.1511357560       10.6565241674
  H         0.3198750607       11.5564921402        5.7796228426
  H        -0.7076746144       10.3601049302        6.5288393701
  C        -0.1078266456        9.9253716381        4.3754668382
  C         4.1500408289       14.2365491002        3.9261447655
  C         1.1252292620       12.4599530574       10.7148759416
  H         1.8893090778       14.2027298319        9.7554307828
  C         0.8004316757       10.7231564240       11.9084750120
  H        -0.1173505551        8.8512142434        4.3966781978
  H         0.8106019457       10.1142862793        3.7976891021
  C        -1.3145369987       10.5224302247        3.5807175010
  C         4.1055816828       15.6236506792        3.6688659829
  C         4.8744485185       13.4770361616        2.9253787319
  C         0.7388444232       13.1870705625       12.0031227541
  C         0.4849786063       11.8372981552       12.7362015171
  S         0.8067344084        9.1608680985       12.6306525624
  H        -0.8574079249       11.3318758221        3.0584282787
  H        -2.1124950695       10.9288654924        4.2893503831
  C        -1.9763518491        9.4667933160        2.6690474661
  N         3.6832066031       16.6193876466        4.5664715848
  C         4.4732609755       16.1079480716        2.4449162540
  C         5.1733732034       13.9319051460        1.7076559375
  H         5.0134493030       12.3906417459        3.0691182043
  C        -0.6704224627       13.8361926630       11.9357401748
  C         1.9270445813       13.9704952228       12.6686997487
  C         0.1106298801       11.3592261884       14.0103983701
  C         0.2029405040        9.9697304921       14.1114278596
  H        -2.1307492929        8.5998511430        3.2744972479
  H        -2.9294845499        9.8543110649        2.3919341442
  C        -1.0890199529        8.9790562728        1.4931542894
  S         3.6127315154       18.0624622043        3.7254955161
  N         4.3046272598       17.5015882819        2.3509207740
  C         4.9559598813       15.3499215174        1.3478252841
  H         5.6623825060       13.2220219214        1.0422418302
  H        -0.5247560162       14.7710424625       11.3587978681
  H        -0.9854276234       14.2079101958       12.9657905099
  C        -1.8543422602       13.0907420857       11.4661964368
  H         2.3582706787       14.5883452556       11.8271890127
  H         1.5792355646       14.7117289252       13.3652258372
  C         2.9861082427       13.0126698240       13.2257261825
  H        -0.1887963782       11.9899506541       14.8994454643
  C        -0.0341123562        9.1588185888       15.3315203921
  H        -1.7817750625        8.3019786144        0.9047618760
  H        -0.3050690375        8.3612082612        2.0167983739
  C        -0.4767636362       10.0188094375        0.5925987927
  C         5.1375990489       15.9669504585        0.0829527375
  H        -1.5939707175       12.3798468970       10.6637281224
  H        -2.3872945394       12.4890218554       12.2170831973
  C        -2.9726116477       14.0915814860       11.0081513720
  H         3.3549134440       12.2928920647       12.5021295737
  H         2.4326013483       12.4288957918       13.9885433605
  C         4.1078971823       13.7081463755       13.9692326299
  C        -0.1495294403        7.7466038250       15.3683533119
  C        -0.2728282125        9.8590880717       16.5620359560
  H        -1.0819770058       10.9604019428        0.6192133105
  H         0.5415728069       10.1257878222        0.7762737503
  C        -0.6111953027        9.6444812562       -0.8984326970
  H         5.3493248134       17.0719305514        0.2726267500
  C         5.4486203711       15.5736452104       -1.1674509410
  H        -2.6071245021       14.9049284309       10.4153895372
  H        -3.5677057449       14.4062122898       11.8817736024
  C        -3.9695919843       13.3425525054       10.1550598988
  H         4.6762157076       14.3678475945       13.2634467417
  H         3.7681192253       14.5506780614       14.6433670867
  C         5.1633102206       12.8267433867       14.8098090936
  N        -0.0498873214        6.8589105963       14.3000469541
  C        -0.4741159937        7.0537160734       16.5327058183
  C        -0.5486621887        9.2274886855       17.7258525549
  H        -0.2472274481       10.9064071775       16.6968247961
  H         0.0181592468       10.2340667606       -1.4994163531
  H        -1.6361266568        9.8508420177       -1.2718411843
  H        -0.2822235412        8.5644908972       -0.9922407286
  S         5.7502461820       13.9493945085       -1.6295523476
  C         5.5357728061       16.5833017032       -2.2799471285
  H        -3.4490687363       13.0419963839        9.1891342248
  H        -4.4353483644       12.4986342073       10.6813495604
  C        -5.2773290927       14.1648081206        9.9027478233
  H         5.4175411075       11.9445504434       14.3030678599
  H         4.6375644831       12.4863078839       15.7348341516
  C         6.4730470147       13.4699851217       15.0372359820
  S        -0.0352639297        5.3204570609       14.8657020548
  N        -0.4097627703        5.6390566828       16.3988436135
  C        -0.7176265869        7.7421112361       17.7594238713
  H        -0.7889222700        9.8051992972       18.6369698321
  C         5.9066339980       14.6312215350       -3.2996904439
  N         5.7827013571       15.9648858498       -3.4227616661
  O         5.3183135232       17.8009584944       -2.0862088042
  H        -5.7483486812       14.1780323034       10.9349633472
  H        -5.2691946107       15.2134790914        9.5914416037
  C        -6.2387726670       13.3597589406        9.0760423219
  H         7.0300038828       12.8362818247       15.7794251242
  H         6.9971686325       13.3492900390       14.0854339772
  C         6.5478131353       14.9123988340       15.5853158266
  C        -0.9963734565        6.9283357199       18.9134996122
  S         6.5933437431       13.7274486627       -4.7029724213
  C         5.8138898899       16.7363287457       -4.6737594719
  H        -5.7911968818       13.0553929044        8.1643088474
  H        -6.5061778684       12.3968378676        9.4972148767
  C        -7.5839527706       14.0367878702        8.9098479149
  H         6.7407613106       14.7006818288       16.6431841269
  H         5.6214621368       15.4076251822       15.5797674297
  C         7.7122303245       15.7740849702       15.0325648170
  H        -0.7804118966        5.8697351555       18.7273392832
  C        -1.4996214498        7.2142022806       20.2349497662
  H         6.4052342575       16.2360718949       -5.4508166221
  H         6.0924100508       17.7725113026       -4.5413387827
  C         4.3497006144       16.8606929835       -5.2133883644
  H        -8.2661318753       13.3935230998        8.4420324495
  H        -7.4423994522       14.9773287663        8.2656676333
  C        -8.1893861558       14.3415089503       10.2314633979
  H         7.7814584248       16.7103731092       15.6494046414
  H         8.6423854188       15.2223878924       15.2720180641
  C         7.6712613542       15.9621609429       13.4860297469
  S        -1.9537644046        8.6925037432       20.8385627882
  C        -1.5885979416        6.1013645710       21.1795968622
  H         4.2531085461       16.6195415381       -6.2203389053
  H         4.1403049433       17.9434966978       -5.1686179605
  H         3.6395260838       16.4423706606       -4.5019620310
  H        -7.8803715746       13.6257259495       11.0301463512
  H        -7.7907213540       15.3096227599       10.5196971942
  H        -9.2782882634       14.5194772781       10.1283982592
  H         8.4339672870       15.4374143219       12.9144646602
  H         6.7318629145       16.1442511344       12.9826231974
  H         8.0311003312       16.9653085745       13.3330669940
  C        -2.1686995595        7.9127640105       22.3960029532
  N        -2.1170921154        6.5448712399       22.3304920426
  O        -1.2831226030        4.9526242190       20.9570608366
  S        -2.9815065744        8.7291894220       23.7424369110
  C        -2.3890756494        5.7258218008       23.4879192986
  H        -2.5054989898        4.6804962849       23.1848733877
  H        -3.2535847863        6.0534868035       24.0455570174
  C        -1.1249065021        5.7402532528       24.4061068536
  H        -0.3890807978        5.2602543912       23.8317124265
  H        -1.1401359084        5.2618985891       25.3687337469
  H        -0.8432697971        6.7193727319       24.5000121614
