352
i =
  H        -3.7897154804       14.3619089362       16.9053672180
  C        -3.3075689926       13.3885830528       16.7331043937
  H        -4.1122968623       12.7583688671       17.1446490279
  C        -2.0005604905       13.3848409121       17.4755945790
  C        -3.1741641469       13.1689883437       15.2182937519
  C        -2.0282881069       14.0599196548       18.8717850125
  H        -1.6356472216       12.3966144644       17.5711514128
  H        -1.1830612529       13.9531560677       16.9197592930
  H        -2.7141717641       12.1955675361       15.0699381392
  H        -4.1343907474       13.4368698141       14.7521968034
  H        -2.2937409383       13.8338416405       14.9513920251
  C        -2.2976748900       12.8816411780       19.9336874278
  H        -2.9368196222       14.7119507970       19.0074405958
  H        -1.1224374100       14.6206561037       19.0213400700
  C        -2.7963244579       13.4156220912       21.2906151408
  H        -3.0317183802       12.1390416744       19.6814086255
  H        -1.3701725948       12.3062390518       20.0914753793
  C        -1.7950398990       12.7792980681       22.3631023236
  H        -3.8016426194       12.9905138172       21.4724679215
  H        -2.8892863292       14.4858543869       21.3295389045
  C        -0.4721963237       13.6585746227       22.5086676057
  H        -2.2745438614       12.6696745072       23.3665926814
  H        -1.5718479298       11.6885243459       22.1082817725
  C         0.6964704194       12.8925661670       23.2649207091
  H        -0.0804835221       14.0827612319       21.5595514133
  H        -0.8106160717       14.5800847054       23.1206840309
  C         1.0503486017       11.5843952500       22.5938765098
  C         0.2798287731       12.3460235525       24.5252288464
  C         1.9425741271       13.7286568932       23.3866664976
  C         0.8582967408       10.5554678414       23.4626513824
  C         1.6039339066       11.1652630740       21.4087258192
  C         0.2947012012       10.9773009725       24.6493122387
  C        -0.1862045179       13.0533118500       25.6511675958
  H         2.1960973512       14.3146333881       22.5662202098
  H         1.8755870933       14.4222163320       24.1859807185
  C         3.2890340844       12.9248309775       23.7002836698
  S         1.4029330807        9.0651382012       22.8363639732
  C         1.9554785949        9.7994657403       21.4231381073
  H         1.8145247096       11.9103629763       20.5985305294
  C        -0.0322844811       10.4056818145       25.8255119659
  H        -0.1799242277       14.1231001760       25.4422582771
  C        -0.5255398670       12.4109592663       26.8261737024
  H         3.4464028624       12.1573260387       22.9111785457
  H         3.1934579616       12.3157574528       24.6078555584
  C         4.4612850925       13.9300270377       23.7427430303
  C         2.5046305871        9.0799216723       20.2267832888
  C        -0.4841365901       11.0473912169       26.9548117248
  H        -0.1064214973        9.3849217008       25.8882098480
  C        -0.9213490529       12.8326758618       28.0855526197
  H         5.3195486094       13.5321515407       24.3110590073
  H         4.1525471772       14.8551440219       24.1548107653
  C         5.0118886142       14.1029602201       22.3195936648
  C         2.3538309861        7.7544843366       19.9504494301
  C         2.7845744262        9.9344867908       19.0108999607
  C        -0.8045428962       10.3839729043       28.2312753383
  C        -0.9814300447       11.7705340189       28.9799984728
  S        -1.1079961643       14.2973327169       28.7850790654
  H         5.4236008028       15.1112943994       22.3146881094
  H         4.2512641343       14.0428378404       21.5353070413
  C         6.1047084332       13.0772918543       21.8874488326
  N         2.0347991478        6.8050981527       20.9307901056
  C         2.6044592560        7.2215497602       18.6906368146
  C         2.9227817309        9.4119361372       17.8013098498
  H         2.6647982283       11.0250133364       18.9701098635
  C         0.3877858302        9.5418739362       28.8054983410
  C        -2.1337125490        9.5838395353       28.2736864628
  C        -1.2728176307       12.2004055899       30.3319583350
  C        -1.4424611671       13.5368694777       30.2879495861
  H         7.0715526948       13.3466968324       22.3635220038
  H         5.8971793313       12.1284353279       22.3002095569
  C         6.1801625336       13.0221541301       20.3394069232
  S         1.8703306095        5.3790592258       20.2050474581
  N         2.4190732961        5.8324542303       18.7370303626
  C         2.9119084023        7.9744624028       17.5223803603
  H         3.1863984468       10.0749718791       17.0666404574
  H         0.8317808175        8.9627715142       28.0200350746
  H         0.0486592707        8.9402361341       29.5851709347
  C         1.6286701510       10.3833145457       29.2392927241
  H        -1.8415348889        8.6515072151       27.7219643547
  H        -2.1758937471        9.2498783866       29.2697607807
  C        -3.3274895786       10.3795973378       27.6789123761
  H        -1.4862559902       11.3904277847       31.0458686978
  C        -1.7698900739       14.3433209168       31.5053957195
  H         5.9079094657       13.9798134587       19.9038845794
  H         5.4296647302       12.3721254824       19.8307007018
  C         7.5518120094       12.7660146649       19.7474471954
  C         2.9066520259        7.3458885588       16.2616912706
  H         1.9494947688       10.9694406233       28.3963832031
  H         1.3267538405       11.1826096016       29.8947911828
  C         2.6929867500        9.4161915343       29.7295170554
  H        -3.1412896507       10.8025780986       26.6668130927
  H        -3.5415820458       11.2417592616       28.2387218930
  C        -4.5870909461        9.5873846259       27.6600458417
  C        -1.6922168129       15.7406352155       31.6206657968
  C        -1.9115454706       13.6150571979       32.8074907605
  H         8.2425164512       13.3972714838       20.3327591938
  H         7.7169004639       11.7306992940       19.9981233046
  C         7.5467379045       13.0793544326       18.2669781885
  H         2.7572687612        6.3369020375       16.3761463367
  C         3.2479477878        7.7368553442       15.0207525525
  H         3.1195807856        9.0100479611       28.7691044026
  H         2.3006017205        8.5391220279       30.3518887166
  C         3.6761686512       10.0838077718       30.6443119415
  H        -4.2819889198        8.6897078661       27.1762362927
  H        -4.8494717735        9.2166563078       28.6410105548
  C        -5.7399101673       10.4457436557       27.1981929698
  N        -1.7232987176       16.6217019364       30.4832662694
  C        -1.8719073593       16.3957476613       32.8255981854
  C        -2.1948721801       14.3079856902       33.9712853948
  H        -1.9934135959       12.5199617490       32.8148134089
  H         7.8495863310       14.1487333145       17.9936958009
  H         8.2359377582       12.3488562908       17.7331523833
  H         6.4823256467       12.9315265026       18.0006221591
  S         3.6948332009        9.3028674415       14.5740312609
  C         3.3589595896        6.7502387829       13.9023815155
  H         3.6673505977       11.1235460938       30.4341921160
  H         3.2435288807        9.9159990344       31.6581702264
  C         5.0168888430        9.3606082673       30.7345863841
  H        -5.3238334373       11.2749790547       26.6211417193
  H        -6.1132617468       10.9845175865       28.0679610726
  C        -6.7883862885        9.7445585785       26.3938293515
  S        -1.4819921504       18.1624155758       31.0855802243
  N        -1.7700258526       17.7751265771       32.6271052997
  C        -2.2291379181       15.7883810039       33.9915373916
  H        -2.4055219839       13.7771435483       34.9131083849
  C         3.8728499810        8.6509907454       12.9416139547
  N         3.8764489664        7.3195489680       12.8115620726
  O         3.2503376608        5.5650530875       14.1241903491
  H         5.5830439240        9.7339696012       31.5764217843
  H         5.6155525653        9.6267239653       29.8511127981
  C         5.0003646722        7.8864605885       30.8212266986
  H        -6.3347222846        8.8211390028       25.8349050051
  H        -7.3701732644        9.2066496681       27.0969575802
  C        -7.5249568373       10.6015503780       25.3700350402
  C        -2.6386933648       16.5611626288       35.0771826110
  S         4.2949995350        9.5547831787       11.5023835378
  C         3.9233386519        6.6795746269       11.4846928766
  H         4.3151015515        7.5994189101       31.6026137166
  H         4.5571554919        7.4743853209       29.8932189843
  C         6.2810234171        7.1861692473       31.2160943137
  H        -6.8129777380       10.9711506403       24.5598871756
  H        -7.8569829593       11.5031228703       25.7958611639
  C        -8.7205302610        9.9382503275       24.7242411814
  H        -2.3648419750       17.5385908360       35.0261071619
  C        -3.1272714842       16.2950225788       36.3728782468
  H         4.7757817540        7.1028375807       10.9134872148
  H         4.2174548731        5.6450438908       11.4700714183
  C         2.5553517545        6.7456096325       10.7920199838
  H         6.0674290822        6.3896346284       31.9580071816
  H         6.8982029769        7.9064112601       31.7276802027
  C         7.0844732840        6.7841298707       29.9931735211
  H        -8.9860387434       10.4918357197       23.7604200154
  H        -8.4956578081        8.9250285761       24.3489212288
  C        -9.9494393846        9.9179921428       25.6545017475
  S        -3.6837427779       14.7793403639       36.9193360896
  C        -3.2148297343       17.4098701932       37.3450258045
  H         2.1594428043        7.7925351242       10.6120382395
  H         2.5583912312        6.2034935523        9.8744657520
  H         1.8035332563        6.1057283970       11.3071940298
  H         8.0641549633        6.5128864244       30.3095336715
  H         7.1610605382        7.6605274200       29.4303487816
  H         6.5879725095        6.1263259551       29.3828703843
  H        -9.6099520104        9.2957221483       26.4461293593
  H       -10.7515577548        9.4288228881       25.1267150833
  H       -10.1106730765       10.9304314040       25.9704413666
  C        -4.1501173248       15.5898847875       38.4093746900
  N        -3.8794084339       16.9473019635       38.4212976297
  O        -2.8665754369       18.5715301771       37.1317481303
  S        -4.8772419963       14.8343526654       39.8002524723
  C        -3.9975585237       17.7479445555       39.6020936639
  H        -3.9827852700       18.8147683695       39.4113913503
  H        -4.9520457754       17.5632905964       40.1034917062
  C        -2.8601047306       17.4861834973       40.5631403920
  H        -2.0125697152       16.9255476681       40.0949436738
  H        -2.4944556295       18.4802974227       40.8260028234
  H        -3.2108434038       16.8948515673       41.4526004387
  H         6.6955038667       11.2859163925        3.2593266689
  C         7.5599436644       10.6000345979        3.3189639759
  H         7.0137176411        9.7060979895        3.4709525304
  C         8.4859510189       10.7382257625        4.5026484234
  C         8.3585793390       10.5785218507        1.9600965211
  C         7.6970259414       10.8830077006        5.7745494639
  H         9.0514282655        9.8218702185        4.6893640361
  H         9.2183485343       11.4776289429        4.2688418911
  H         7.5904559554       10.4858631633        1.2560119706
  H         9.1586564473        9.8032166650        1.9800294016
  H         8.7811589561       11.5264667642        1.6994923817
  C         7.1535436578        9.5657328908        6.3081079890
  H         8.2846352203       11.3651230144        6.5632991080
  H         6.9001203702       11.5828165037        5.6133250117
  C         6.6114379050        9.7534021054        7.8015755350
  H         7.8581729471        8.7570611960        6.3658976470
  H         6.2786835645        9.2795710613        5.6700416482
  C         5.2921501451       10.5374524660        7.9688044093
  H         7.3788931532       10.1945896601        8.4138661412
  H         6.3766888545        8.7439544299        8.1404365068
  C         4.0096891021        9.7540039017        7.3861770552
  H         5.0865019681       10.9267003567        8.9685617128
  H         5.5530635677       11.3330283817        7.3374830219
  C         2.8114012199       10.6759911061        7.2687189992
  H         3.6875189565        8.9759716489        8.0699207454
  H         4.2191339676        9.4083052325        6.3915594929
  C         3.1978940416       11.9856269541        6.5476965208
  C         2.3902404095       11.3784062044        8.5403937114
  C         1.6902433861       10.0078711748        6.4486481760
  C         2.8730771017       13.0290621128        7.3950389341
  C         3.5703356012       12.3635113724        5.2463881769
  C         2.4316309549       12.7117292361        8.6542531272
  C         1.8419022488       10.7592283457        9.7198673970
  H         2.1802798757        9.6807691821        5.4571873456
  H         1.4724527791        9.0190304221        6.8297308754
  C         0.4022550890       10.8554029003        6.0727572511
  S         3.1212828196       14.5615375203        6.6325420824
  C         3.5918406085       13.7331876301        5.1410618411
  H         3.8948257594       11.6464514808        4.4681542901
  C         2.1524132310       13.3472635086        9.8159450410
  H         1.7356811063        9.6657528756        9.8430501430
  C         1.4644016430       11.3925370026       10.8637832926
  H         0.6673497963       11.9215610910        5.7788031378
  H        -0.1975380699       10.9714094518        6.9923114543
  C        -0.4257007979       10.0950870307        5.0797991308
  C         3.9872472858       14.4312444657        3.8865390332
  C         1.6109170755       12.7133712262       10.9864677598
  H         2.2600359767       14.3879402578        9.8831901862
  C         1.0985056638       10.9684987341       12.1703484213
  H        -1.3857702534       10.6560231749        4.9077456122
  H        -0.5171849457        9.0690017532        5.4275025116
  C         0.2137715090       10.2598504552        3.6551420037
  C         4.1072121529       15.8025139284        3.6791229198
  C         4.4418742298       13.6359368585        2.7508488814
  C         1.2563206255       13.3809865416       12.2861601855
  C         0.9516667790       12.0925586367       12.9916151360
  S         0.7660757132        9.5303230387       12.9153223738
  H         1.0785644136        9.6738673533        3.6340990871
  H         0.5718518415       11.2668839738        3.5110451317
  C        -0.7297190429        9.7124757315        2.5793459715
  N         3.7376326923       16.7133899028        4.6557656031
  C         4.3040712309       16.4309076199        2.5050230948
  C         4.6623234475       14.2251435705        1.5342049721
  H         4.3877845575       12.4692547755        2.7314874291
  C        -0.1619473420       14.1647690393       12.0555831409
  C         2.2924941891       14.4110235673       12.8383322957
  C         0.5538711253       11.7103402701       14.2850650942
  C         0.4787930848       10.3444135532       14.4043926566
  H        -0.8715200101        8.6332209145        2.6677901370
  H        -1.7173604160       10.0690661636        2.7650789235
  C        -0.2788647243       10.1882913720        1.1599925520
  S         3.8102600946       18.1986974702        4.0724668172
  N         4.3553423498       17.8152586706        2.5957437077
  C         4.6250418639       15.7108319778        1.3413230495
  H         4.9041335240       13.6277538841        0.7005387966
  H         0.0548183667       15.0247062228       11.4669885360
  H        -0.5102549281       14.4088462038       13.0706973461
  C        -1.2718339000       13.4363157860       11.3395741273
  H         2.5550480109       15.2103008951       12.1190823691
  H         1.8367060068       15.1056986015       13.6671781542
  C         3.4548659620       13.6695504937       13.4493851716
  H         0.3479308044       12.4714899563       15.0284894667
  C         0.1146171990        9.5106095894       15.5817760951
  H         0.6953988173        9.7042366953        0.8572818596
  H        -0.2898085749       11.2733976119        1.1169061286
  C        -1.2380117362        9.8452550888        0.0358873771
  C         4.8295157178       16.4461899313        0.1579988250
  H        -0.8579126131       13.1204455039       10.2944152653
  H        -1.3934562561       12.4907984442       11.8741901890
  C        -2.6425731262       14.1565541828       11.3871569674
  H         3.7810809780       12.8495484931       12.8550779483
  H         3.0863802591       13.1512452530       14.3245187791
  C         4.6701576711       14.4048214234       13.9229443566
  C        -0.0284716912        8.0865885244       15.6402316132
  C        -0.0583870378       10.1839872156       16.9165336497
  H        -1.1708268467        8.7151537168       -0.0992988291
  H        -2.2819039363        9.9849321981        0.3982733380
  C        -0.9198761499       10.7090963761       -1.2826745270
  H         4.5523859699       17.5143778778        0.1408968121
  C         5.1831873476       16.0862252430       -1.1429634255
  H        -2.5959963937       15.2033293955       11.0276619104
  H        -2.9648174690       14.3386210399       12.3794620590
  C        -3.6953637765       13.2335356863       10.7104998989
  H         5.0946712784       14.9836680784       13.0691517434
  H         4.2863967407       15.2478025678       14.5332097130
  C         5.5937527662       13.5749159102       14.7808057469
  N         0.1396611607        7.1648627347       14.5770073267
  C        -0.3392148405        7.3655177344       16.7938561784
  C        -0.4246185476        9.4826193953       18.0326323118
  H         0.2607097552       11.1959989135       17.0166946015
  H        -1.7637685134       11.2210488256       -1.7604457664
  H        -0.7177658141       10.0122810967       -1.9317869623
  H        -0.0702620567       11.3317282033       -1.2129498659
  S         5.6190754902       14.4909165073       -1.6470603226
  C         5.1389011388       17.1376699184       -2.2361500693
  H        -3.4149631481       13.3333384173        9.6521037852
  H        -3.4422493532       12.2265360191       10.9599860317
  C        -5.1546894306       13.4903225286       11.0696469169
  H         5.3013119751       12.5540270845       14.8690928516
  H         5.4598802516       13.8531971953       15.8009452266
  C         7.0848985703       13.6632453017       14.4199205944
  S        -0.0155869841        5.5738048710       15.1218467581
  N        -0.3643529127        5.9881733104       16.6340706988
  C        -0.5079540411        8.0138730290       18.0599440996
  H        -0.5703655482        9.9909628904       18.9547753468
  C         5.7106741373       15.2567072949       -3.2607579955
  N         5.4570115884       16.5604775697       -3.3875690205
  O         4.8901110042       18.3399250531       -1.9818670659
  H        -5.3180496175       13.1097920628       12.0715609090
  H        -5.3152467575       14.5997121173       11.0437039481
  C        -6.1777154062       12.7605834889       10.2036221413
  H         7.6251727820       13.1470178982       15.2368026542
  H         7.3180649833       12.9912146383       13.6331471275
  C         7.5814764820       15.1233079799       14.2118146900
  C        -0.9227272224        7.2008676827       19.1961220100
  S         6.0747061077       14.3552390506       -4.7253657239
  C         5.3396913864       17.3613175621       -4.6303626859
  H        -5.9016762819       11.7224514142        9.9535471031
  H        -7.0755541921       12.5857460999       10.6999541786
  C        -6.5727103652       13.5223364778        8.9466017049
  H         7.2252036019       15.5488447390       13.2888028299
  H         8.6521099865       15.1016575770       13.9552730881
  C         7.2207076994       16.0774568815       15.3556587554
  H        -0.6106791038        6.1620872997       19.1323206830
  C        -1.4817808127        7.4979655876       20.4239502836
  H         6.1983279514       17.1454151861       -5.2526483822
  H         5.5365478430       18.3290667198       -4.3290609814
  C         4.0072420603       17.1535016122       -5.3579233694
  H        -6.1854860254       12.9391419940        8.1162951959
  H        -6.0167577854       14.4602010309        8.9593038615
  C        -8.0784206996       13.8256639413        8.8571386195
  H         6.1756156489       16.1305143964       15.5631282499
  H         7.7182521533       15.4953445686       16.1365482511
  C         7.9588286416       17.4103707775       15.1795172757
  S        -1.9381001861        9.0377053768       20.9175155795
  C        -1.5520482593        6.4166911389       21.4209505029
  H         3.5840513032       16.1535290439       -5.0237915023
  H         4.1229916023       17.0604014495       -6.4383440348
  H         3.1684699759       17.7152511581       -5.1352501550
  H        -8.7201281738       12.9786214977        9.0767513092
  H        -8.3057875253       14.6888580243        9.4575305586
  H        -8.2440705417       13.9793850326        7.7193886362
  H         8.4573331937       17.4710173633       14.2521056178
  H         7.3347299809       18.2677010780       15.2928289388
  H         8.8060731226       17.5534388410       15.9025175947
  C        -2.2662134001        8.2253978550       22.4565391472
  N        -2.0083245325        6.9321483632       22.5709560699
  O        -1.2053046122        5.2156371600       21.1961970764
  S        -2.7147957150        9.0137455569       23.9183731258
  C        -2.0915284584        6.1748295524       23.7736412015
  H        -2.4788701435        5.1558224188       23.5055946452
  H        -2.8977006545        6.4983824714       24.4131582857
  C        -0.7632969364        6.2648478210       24.5286973420
  H        -0.0141070185        6.7885482228       23.9913110430
  H        -0.3565621223        5.2516893260       24.5898086828
  H        -0.9017423118        6.6490512719       25.5530663461
