352
i =
  H        -3.5764826875       14.7534747112       16.0874626632
  C        -3.3754842942       13.6816874432       15.9952160131
  H        -4.3341682642       13.2121634030       16.2778782958
  C        -2.3881139643       13.2194599968       16.9816880418
  C        -3.0380497810       13.4911629459       14.4992454995
  C        -2.7923916232       13.4966746622       18.3948132292
  H        -2.3035301349       12.1486479929       16.9216253508
  H        -1.4459932849       13.7477856107       16.7882678710
  H        -3.3096733823       14.3656487635       13.9683625042
  H        -1.9774107651       13.4503322803       14.3795392634
  H        -3.6682091435       12.6968390337       14.0209923424
  C        -1.6952752068       13.1271076318       19.4202182150
  H        -3.7337732485       13.0844262138       18.6611596212
  H        -2.9279647046       14.5431251006       18.5539110886
  C        -2.2143156595       13.2427412422       20.8572833593
  H        -1.4534179642       12.0883176584       19.2610224213
  H        -0.8497601969       13.7392320857       19.0918030881
  C        -1.3259402421       12.7042760557       21.9860362243
  H        -3.0355919571       12.5293629840       20.9562019320
  H        -2.6081807507       14.2228517246       21.2049343639
  C        -0.2306125673       13.6610541580       22.2984900741
  H        -1.8769292464       12.3833751935       22.8870582807
  H        -0.9997170891       11.7547603337       21.6249980020
  C         1.0131384973       13.0603873684       22.9550689821
  H         0.1541073675       14.1848854710       21.3780306193
  H        -0.5447578053       14.4806854602       22.9555786962
  C         1.4014693465       11.7525814622       22.3145303168
  C         0.6447865170       12.4107964375       24.2692430089
  C         2.1021618968       14.1326736389       23.2072294057
  C         1.2478941530       10.6768538544       23.1848391080
  C         1.8129786841       11.2315060972       21.0407205553
  C         0.7985780643       11.1035039905       24.3864801137
  C         0.2824938224       13.0196724075       25.4962791901
  H         2.3248203712       14.6757599441       22.3130763415
  H         1.7307784185       14.9577366403       23.8014853000
  C         3.4477035350       13.6341649405       23.7704333414
  S         1.8570095238        9.1415197050       22.6136730882
  C         2.1733691294        9.8887600291       21.1015928424
  H         1.9083911560       11.9494244848       20.2117775023
  C         0.4620865955       10.4309259623       25.5875323916
  H         0.0097966820       14.1023027649       25.5115573220
  C        -0.0404379008       12.3431453869       26.6569708616
  H         3.7889979680       12.9514739007       23.0008047308
  H         3.1952936118       13.1444096709       24.7237995304
  C         4.6029121289       14.5673832815       24.2044828539
  C         2.6208366603        9.2195543014       19.8516031672
  C         0.1149342000       11.0149318133       26.7411245976
  H         0.5983887891        9.4111578012       25.5479042903
  C        -0.4264707471       12.7060432290       27.9790220055
  H         5.2850647622       13.9480354133       24.8794240413
  H         4.3132477522       15.4272614910       24.7863128069
  C         5.2979263042       15.1989497732       23.0603874111
  C         2.5762544377        7.8182236356       19.6284359008
  C         2.9508082926       10.0540915862       18.6981381751
  C        -0.1640730942       10.2643470000       28.0420738626
  C        -0.4814145551       11.5621623110       28.7595023802
  S        -0.8140287626       14.1638919595       28.7223102736
  H         5.8186574136       16.0598373828       23.5199690420
  H         4.5127598280       15.5312550767       22.4001311314
  C         6.2359444973       14.3082278119       22.2949741042
  N         2.1191912866        6.9360583463       20.5627488055
  C         2.7486440065        7.2093711346       18.3682786506
  C         3.2288830034        9.3941044088       17.5095448546
  H         3.1184693177       11.1577071140       18.8094970002
  C         1.0646235528        9.5577536473       28.6018069170
  C        -1.5013299652        9.3498213847       28.0907520688
  C        -0.9844551656       11.8983450998       30.0515655179
  C        -1.2300792600       13.2365963612       30.1646036610
  H         7.0272518086       14.7930563725       21.8453607250
  H         6.8127859124       13.7082304202       23.0304234731
  C         5.5916565776       13.4206388608       21.1566349690
  S         2.1829405744        5.4332160107       19.9505475284
  N         2.6393538215        5.8040369671       18.4355608479
  C         3.1372051013        7.9740859729       17.2723789716
  H         3.5684809274        9.9336643468       16.6539697991
  H         1.5027502063        8.7804501730       27.9698329634
  H         0.6744636649        8.9806660282       29.4339448960
  C         2.0400536901       10.5021406824       29.2552714198
  H        -1.3431916125        8.5244075705       27.3771507525
  H        -1.6434182753        8.9460082751       29.0932240278
  C        -2.6721949955       10.1342868318       27.6806643534
  H        -0.9133388941       11.1898992214       30.8418772390
  C        -1.6093106280       13.8821830044       31.5030908454
  H         4.5574020872       13.6630608493       20.9849392543
  H         5.4297189616       12.3997276458       21.4840463112
  C         6.1738716926       13.6928804149       19.7541965651
  C         3.4697788949        7.2915138060       16.0785501781
  H         2.3171747529       11.3024274416       28.6203761006
  H         1.5157049974       10.9220585696       30.1176249995
  C         3.2123599428        9.7816553310       29.8556103185
  H        -2.4901569580       10.4748768931       26.6708454293
  H        -2.8551595575       11.0125173202       28.2612157919
  C        -3.9025252549        9.3291794707       27.4087349155
  C        -1.5713712668       15.2722750758       31.7944755153
  C        -1.9744573759       13.0877997831       32.7236609031
  H         5.6570974189       13.0323868353       19.0884401670
  H         5.9228318315       14.7212411966       19.4300999531
  C         7.6361057454       13.3145644391       19.5428788700
  H         3.4277350681        6.2229347811       16.1576019483
  C         3.7546671664        7.6691116183       14.7628449230
  H         3.7432217218        9.3309440576       29.0273375557
  H         2.8126539315        8.8841385691       30.3929384498
  C         3.9801074634       10.7039610422       30.8058095285
  H        -3.7634265739        8.5238073029       26.6341347607
  H        -4.2287681681        8.7336671717       28.3091728604
  C        -5.0586324624       10.2905473240       26.9417347961
  N        -1.2521592932       16.2206897372       30.8030687682
  C        -1.8659580223       15.8006061141       32.9992016805
  C        -2.1961797403       13.6098964988       33.9991665296
  H        -2.0678947324       11.9924313550       32.6475209443
  H         7.8512948824       12.4346798115       20.0833644771
  H         7.8709812071       13.1253256941       18.4944638753
  H         8.2061001222       14.1325896314       19.9607820997
  S         3.9607375668        9.2336468960       14.1589188273
  C         3.6792125228        6.5601704483       13.7727402820
  H         3.9684413686       11.6667532293       30.4932469560
  H         3.3675130157       10.5536970661       31.7070846419
  C         5.5127438086       10.3358794650       31.0525366722
  H        -4.5922384566       11.0225779694       26.2751485017
  H        -5.5521385174       10.7133754663       27.8158680867
  C        -5.9729997222        9.5326479243       26.0360756973
  S        -1.3223791358       17.7377871203       31.5253427275
  N        -1.7765425217       17.1816179726       32.9926644378
  C        -2.2658834544       15.0853020823       34.1485576807
  H        -2.4169677452       12.9171421216       34.8562825563
  C         4.1066050672        8.3920908652       12.5797415976
  N         3.9035877926        7.0514296720       12.5393985764
  O         3.4850404016        5.3445099402       14.0353374524
  H         5.8933660404       11.1103930463       31.7309951205
  H         5.9542905583       10.3669541615       30.0590361159
  C         5.7867978579        8.9592970412       31.5468377631
  H        -5.4349876917        8.8845667497       25.2902080974
  H        -6.4134712253        8.8134320585       26.6771970542
  C        -7.1006989248       10.4104857794       25.4788796452
  C        -2.5935510086       15.8258111738       35.3253534452
  S         4.5965806070        9.1829384002       11.0568281800
  C         3.6334146188        6.3790579094       11.2598885461
  H         6.5445199248        8.9278215157       32.3019561828
  H         4.9025517534        8.4621825709       31.8660536108
  C         6.2838567004        8.0027674775       30.4710583405
  H        -6.6012896677       11.0240033844       24.8227084445
  H        -7.3919486137       11.1000624527       26.2569610734
  C        -8.1642503064        9.6775810882       24.7609639686
  H        -2.1755380339       16.8091178804       35.3333713482
  C        -3.2709677132       15.4172384276       36.5025656257
  H         4.2831498692        6.7053121300       10.4499783937
  H         3.8078126491        5.3491164735       11.2944597113
  C         2.1150883719        6.5484608869       10.9771758546
  H         7.3526634024        8.2986538795       30.3465358550
  H         5.7703706382        7.9226193256       29.5306703157
  C         6.4452703888        6.6054168281       31.0200361710
  H        -8.4841962923       10.2587215091       23.8940697843
  H        -7.7269086213        8.7672529975       24.4777978777
  C        -9.3483795412        9.3694943056       25.6512835770
  S        -3.7621441339       13.8189388545       36.8887651490
  C        -3.5584514455       16.4742625759       37.4768591191
  H         1.7077588433        7.5913873123       10.8070744639
  H         1.9436564070        5.8670456782       10.1644397288
  H         1.5847631565        6.1648255043       11.8233349675
  H         7.0616515329        6.8515968228       31.8770871382
  H         6.9255358414        5.8750262299       30.3271827548
  H         5.4551485998        6.2432707061       31.3381873527
  H        -9.3336955529        8.6729352298       26.4882510919
  H       -10.1820661993        8.9817060967       25.0637525019
  H        -9.7075171054       10.2943071766       26.0787054972
  C        -4.4038886072       14.5372925799       38.4066186499
  N        -4.1507982086       15.8960121480       38.5297225107
  O        -3.1568375475       17.6484776007       37.4628074796
  S        -5.2607939859       13.6807998404       39.7312443770
  C        -4.4821270425       16.6199187171       39.7492189002
  H        -4.9156078208       17.5316594280       39.4810382568
  H        -5.3396765404       16.1640929370       40.1913677619
  C        -3.4200368533       16.6808902976       40.8145951666
  H        -2.4081013452       16.5303123588       40.4217122313
  H        -3.5400764577       17.6132281564       41.3221752244
  H        -3.6168300414       15.9879976177       41.5766179380
  H         6.9358453874       11.6257080453        2.9053754422
  C         7.5127432843       10.6476383401        3.0626295482
  H         6.8485503409        9.7639717188        3.2026038271
  C         8.4071674877       10.6859709375        4.3590881584
  C         8.3600958756       10.5368592115        1.7439207249
  C         7.7869937300       10.7647966546        5.7330770169
  H         9.0824929065        9.8226146287        4.4541073075
  H         9.0513275254       11.5773789886        4.3400558942
  H         9.0706812814       11.3171926274        1.4887582186
  H         7.6154552695       10.5635087099        0.9274209598
  H         8.8079887008        9.4880181289        1.5897277083
  C         7.0830891365        9.4391813136        6.0628669719
  H         8.5536501833       10.8741107657        6.4318165134
  H         7.1617109070       11.6603212797        5.8137958205
  C         6.3475154876        9.3651828569        7.3974780589
  H         7.8098319520        8.5745842155        6.1029313346
  H         6.4180622546        9.1651575996        5.2626772962
  C         5.0619799484       10.2762547427        7.4569090618
  H         7.0408506912        9.7082277176        8.1354935354
  H         6.1581542383        8.2930110363        7.6431155305
  C         3.7572987015        9.6300815543        6.9534633761
  H         4.9802996566       10.7320421223        8.4528747957
  H         5.2934582201       11.1222595976        6.8260023320
  C         2.5899421514       10.5867708603        6.7827078455
  H         3.5047973685        8.8913349547        7.6936929658
  H         3.9283492819        9.1056624725        6.0262402800
  C         3.0403502543       11.9264322133        6.1621008930
  C         2.1255370588       11.2929497312        8.0238430535
  C         1.3615790365        9.8828260053        5.9837133467
  C         2.7660301899       13.0348039257        6.9674208981
  C         3.6189427128       12.3498042328        4.9889037758
  C         2.2650854039       12.6519356993        8.1725290720
  C         1.7919735131       10.7317720379        9.2655810227
  H         1.7634853040        9.5603641132        5.0482402453
  H         1.0134818976        8.9706626297        6.5076243071
  C         0.1117450972       10.7359942393        5.6546348765
  S         3.1377110124       14.5852423881        6.2640044134
  C         3.7135502845       13.7106870085        4.8913333433
  H         3.9392210415       11.5482917968        4.3726513250
  C         1.8589162475       13.3125335088        9.2715985147
  H         1.7071982865        9.6832773066        9.3863736780
  C         1.4680901375       11.4152050253       10.4221213280
  H         0.4783015737       11.6288381077        5.1134339682
  H        -0.2655867954       11.0115678296        6.6750382082
  C        -0.8859812229       10.1284786985        4.7794644577
  C         4.1289502484       14.3857741870        3.6140914078
  C         1.4793574325       12.7327056082       10.4676756672
  H         1.9449385700       14.3951380335        9.3203715635
  C         1.1271980957       11.0418585706       11.6760712287
  H        -1.6312240167       10.9670586288        4.6334537757
  H        -1.4156432359        9.3410563602        5.2229090455
  C        -0.3681643249        9.7541758409        3.3855091172
  C         4.1782338709       15.7602629458        3.3686997624
  C         4.5869763949       13.5532181473        2.5100295492
  C         1.0444848620       13.3982867447       11.6682724633
  C         0.8287832602       12.1078676499       12.4592549103
  S         0.8766982841        9.5668893758       12.4870098219
  H         0.0835425871        8.7201441077        3.2787334386
  H         0.4426427692       10.4008274754        3.2179541376
  C        -1.4588119319        9.8636061532        2.3192679201
  N         3.8723333376       16.7373416817        4.2800378695
  C         4.4230985241       16.2649081225        2.0852841188
  C         4.9633951735       14.0946100303        1.3038791785
  H         4.8643833934       12.5341419203        2.6853865386
  C        -0.1785063554       14.2261163071       11.4460212011
  C         2.2319001677       14.0749899691       12.2862685621
  C         0.4904097119       11.7687254879       13.7483691755
  C         0.4697672893       10.3980654013       13.9368455573
  H        -2.2453597131        9.1398128327        2.5619640990
  H        -1.8191257837       10.8700184339        2.1070152890
  C        -1.0365990401        9.3375735630        0.9550764481
  S         3.7577794627       18.1618328425        3.4893871382
  N         4.1894192619       17.6601702134        2.0347469175
  C         4.8590400226       15.5096975007        0.9558209706
  H         5.4239384487       13.5270643068        0.5277313355
  H         0.0484460186       15.0634717156       10.8099473267
  H        -0.4348631656       14.7567593566       12.3864303890
  C        -1.4336460832       13.4214512668       11.0463806687
  H         2.7015980449       14.7066871812       11.5810170211
  H         1.8862720007       14.6109913287       13.1599568188
  C         3.3720549393       13.0739307086       12.8266769813
  H         0.3907475822       12.5155352346       14.4901003364
  C         0.0716311046        9.6532423393       15.1784654178
  H        -1.4263219194        8.3483720853        0.5601626252
  H         0.0221966301        9.2485785414        1.0776793472
  C        -1.3456889392       10.4253813692       -0.0784600337
  C         5.0863980364       16.1266185236       -0.3080996692
  H        -1.1844717321       12.6683070215       10.2620994277
  H        -1.6659234885       12.6700892981       11.8322219313
  C        -2.7404664211       14.1365989305       10.7561692504
  H         3.6061594533       12.3556174858       12.0312730853
  H         3.1233130019       12.4115615474       13.6632546759
  C         4.5903215587       13.8107330205       13.1750253871
  C         0.0307176591        8.2453439057       15.3846567073
  C        -0.1370594458       10.4556641248       16.4195907884
  H        -2.3828027450       10.7792918321        0.0365648936
  H        -0.7091664501       11.2480220859       -0.0554826960
  C        -1.1413933246        9.9155931641       -1.5489412800
  H         4.9708300155       17.1877181932       -0.1776667832
  C         5.3739281855       15.7392206285       -1.5894772622
  H        -2.5368141623       15.1970337220       10.4050983683
  H        -3.3582827529       14.2214457582       11.6742932974
  C        -3.5657546829       13.3914585857        9.6369460400
  H         4.9760982194       14.1920732835       12.1860175857
  H         4.1874315675       14.6295884179       13.7870661213
  C         5.5906812980       13.0130229268       13.9488992896
  N         0.2739657765        7.2155328261       14.4494619973
  C        -0.2649144496        7.6805361595       16.6333683920
  C        -0.4094566014        9.9005234945       17.6177724110
  H        -0.0820394683       11.4786775926       16.3721585561
  H        -1.5282280034        8.9381151293       -1.6083766654
  H        -0.1161540390        9.9300372283       -1.6893554127
  H        -1.5497925434       10.6111520741       -2.3388226836
  S         5.7760171333       14.0725990974       -2.0428636033
  C         5.3604371673       16.7792543804       -2.6040302490
  H        -3.0511285095       13.3053578671        8.7188888189
  H        -3.8180501016       12.4323232318       10.0542962829
  C        -4.9346246227       14.0759553807        9.2869713294
  H         5.6423693297       12.0481688559       13.5691282907
  H         5.1499799356       13.0155530707       14.9648346071
  C         6.9755975359       13.6322314561       14.0529595851
  S         0.2039571766        5.8290350411       15.2538849048
  N        -0.2080440883        6.3123651919       16.7057699413
  C        -0.5035116935        8.3681642910       17.8542622889
  H        -0.5217690284       10.5514195677       18.4473176530
  C         5.9522392899       14.8322436267       -3.6331207328
  N         5.7457186505       16.1729088945       -3.7446932521
  O         5.4529527260       17.9784182336       -2.3346796912
  H        -5.3811055137       14.4776553321       10.1361242611
  H        -4.7930922527       14.9175751523        8.6028851776
  C        -5.9405160536       12.9668159938        8.6823199685
  H         7.4984317612       12.9689279280       14.7390548523
  H         7.4393094355       13.6700311526       13.0825313119
  C         6.9063387601       15.0486289270       14.6829687009
  C        -0.7109212023        7.6420564972       19.0716515872
  S         6.7344077652       14.0470385059       -5.0100337913
  C         5.8370677787       16.8943371050       -5.0344640262
  H        -5.8079748551       13.0963599739        7.6089982951
  H        -5.6174929127       11.9972983835        9.0052831675
  C        -7.4369819961       13.2645365142        9.0065217476
  H         7.7633359070       15.1189302205       15.2823636128
  H         6.1703011951       14.9300467828       15.4580615776
  C         6.9446601948       16.1984507372       13.6845181076
  H        -0.2427221795        6.6940639503       19.1180996868
  C        -1.3835496835        7.9933581771       20.2263462101
  H         6.7632487692       16.6754865610       -5.5623245586
  H         5.9481676706       17.9527460390       -4.7894161688
  C         4.5376349527       16.7240570494       -5.8435973514
  H        -8.0928674463       13.1045587309        8.1830667252
  H        -7.5116867936       14.3592978200        9.0564476685
  C        -7.9913954483       12.6798775122       10.2897578699
  H         7.0095192879       15.8844824962       12.6597954387
  H         6.0811708628       16.8175608003       13.7052584595
  C         8.0242218293       17.2671848969       14.0204001373
  S        -2.1614397757        9.5246724495       20.5641824370
  C        -1.3969788532        6.9533084979       21.2923943334
  H         4.2202128388       17.7055717716       -5.9515878468
  H         3.8120428416       16.2178226049       -5.2292886235
  H         4.7154231200       16.2073823971       -6.7894155848
  H        -8.1099647730       11.6017998609       10.0894474296
  H        -7.3218236032       12.7489560541       11.0863710315
  H        -8.9412025918       13.2461887505       10.3699767957
  H         8.0261821829       17.9397612627       13.1185234395
  H         7.8528565667       17.8268157878       14.9889332380
  H         8.9992662659       16.8641744530       14.1164385264
  C        -2.4078474503        8.7927090323       22.1865071796
  N        -2.1284171537        7.4767544842       22.2878192125
  O        -0.8953706349        5.8466279174       21.2328953446
  S        -3.2307342998        9.5266653895       23.6144360234
  C        -2.2237586703        6.7874041429       23.5395045651
  H        -2.3463628373        5.7897673563       23.3285067422
  H        -3.0786109112        6.9585148328       24.2306219682
  C        -1.0306203517        7.0394107106       24.4079718492
  H        -0.3603096395        6.1491317118       24.4828990975
  H        -1.3421673010        7.1554104437       25.4348521685
  H        -0.3901858314        7.8357836385       24.1548935048
