352
i =
  H        -2.3901570903       15.2673588773       14.8174856800
  C        -2.8600341978       14.6364551849       15.5872541127
  H        -3.6570109817       15.2734876571       15.8874054549
  C        -1.9346053152       14.4512152324       16.8244339499
  C        -3.4343822341       13.2841967222       15.0175671253
  C        -2.6933458506       14.0893459647       18.1063937785
  H        -1.3602022254       13.6524946350       16.5553999190
  H        -1.2875939723       15.3719073515       16.8510858998
  H        -3.9058772714       13.4350503113       14.0690425582
  H        -2.6561684013       12.5301002589       14.7335456937
  H        -4.2003347828       12.8675347607       15.6741064232
  C        -1.6594943828       14.0491879407       19.2196985567
  H        -3.2693704404       13.1861051374       18.0066258767
  H        -3.3228572730       14.9559054868       18.4452422306
  C        -2.1767561016       13.7918263686       20.6548010164
  H        -0.9008642475       13.3006551999       19.0903619072
  H        -1.1235072550       15.0139284688       19.2299300455
  C        -1.2081393256       13.1786144764       21.5703738695
  H        -3.1383132295       13.2190317659       20.6630353897
  H        -2.4991817279       14.6384079554       21.1075216342
  C         0.0039990324       14.1892489442       21.8781085692
  H        -1.6950697817       13.0154704802       22.5334437267
  H        -0.8667505466       12.2633556481       21.0968402326
  C         1.1365039883       13.5898088976       22.7588520601
  H         0.5554461012       14.3977473067       20.9205437975
  H        -0.3902129052       15.0411302590       22.3572361929
  C         1.5721764001       12.1702531084       22.2052764981
  C         0.6105861235       12.9923982262       24.0803338823
  C         2.3621569869       14.5193084057       23.0756484833
  C         1.2622144569       11.1682791806       23.0243768054
  C         2.0689698923       11.7291360877       21.0162436875
  C         0.6447433526       11.6363397051       24.2155865558
  C        -0.0118387911       13.6051819482       25.2000865174
  H         2.5768145442       14.9907647288       22.1451852366
  H         1.9618701412       15.3335108610       23.6705976467
  C         3.5680764367       13.7367301708       23.6007827301
  S         1.8045756531        9.5779225654       22.4671018226
  C         2.1573692043       10.3678301325       20.9696012958
  H         2.1293202221       12.4618358224       20.2001980465
  C         0.2246991381       11.0437192459       25.3917985892
  H        -0.1847525315       14.6627477249       25.0783568847
  C        -0.4102403373       13.0277621867       26.3669632909
  H         3.9102353778       13.1363474103       22.8007865701
  H         3.2547759495       12.9808400435       24.3313984936
  C         4.6515761796       14.5168506413       24.1174916919
  C         2.5520050408        9.5010775252       19.7618876529
  C        -0.3776142823       11.6436771020       26.4698827531
  H         0.3668734702        9.9281820884       25.5216782398
  C        -1.0347143687       13.3872019715       27.5215993978
  H         5.2551030604       13.7865452279       24.6553054402
  H         4.2356667811       15.3293792688       24.7559305224
  C         5.4338042913       15.0327642420       22.9522974779
  C         2.4749122519        8.1154710977       19.4686114574
  C         3.0725823214       10.2423591863       18.6129690866
  C        -0.9887340040       10.9841407999       27.6240849507
  C        -1.2473441188       12.2954988631       28.2974212424
  S        -1.2476958839       14.8604956686       28.3094638805
  H         5.9691156748       15.9689400934       23.2830962660
  H         4.6535420474       15.3656962299       22.2505443387
  C         6.4475797731       14.1874209916       22.2371684500
  N         1.9222229931        7.2548601670       20.3718773658
  C         2.5472886455        7.5670335433       18.2452660737
  C         3.2582403425        9.6759855661       17.3603378318
  H         3.4738702249       11.2930597511       18.7482329773
  C         0.0276148326       10.1594905498       28.4963553670
  C        -2.2870158728       10.1662736689       27.4669495269
  C        -1.7000012580       12.6475593651       29.6163406166
  C        -1.7168476402       13.9936957212       29.6835498021
  H         7.4144933803       14.8135699826       22.3051669539
  H         6.7695326240       13.3669847232       22.9103401663
  C         6.0197743037       13.6858288470       20.9124908747
  S         1.7266191187        5.8112244687       19.7540125082
  N         2.1556171077        6.2241721700       18.2662839226
  C         2.8935750634        8.2646937213       17.0702755698
  H         3.8169826433       10.1312654310       16.5482580688
  H         0.4382224247        9.4104182967       27.8810912296
  H        -0.4363586403        9.7004716772       29.3229303976
  C         1.2496306124       10.9449878937       29.0338685635
  H        -2.0004807585        9.3128745852       26.8919888574
  H        -2.5086829109        9.8114093781       28.5030073335
  C        -3.5144442149       10.9036151575       26.8927196873
  H        -1.9748073257       11.8956088429       30.2606605751
  C        -1.9478858550       14.7116079982       30.9605393002
  H         5.4907427241       14.5300231365       20.4937863795
  H         5.3438901195       12.8534772357       20.9250705230
  C         7.2383244386       13.5411540704       19.9770986889
  C         3.1124408495        7.5900995424       15.8423819753
  H         1.8552485194       11.2804764298       28.1487337845
  H         0.8878947199       11.7741020829       29.6415374153
  C         2.2162973510       10.0617004958       29.8296964373
  H        -3.2753828453       11.4543173844       25.9884464258
  H        -3.7460485293       11.5831572216       27.7386255658
  C        -4.7160928529       10.0031725495       26.6885262246
  C        -1.9197796371       16.1220384298       31.1843703770
  C        -2.2854385632       13.8820008226       32.1940691518
  H         7.8631365297       14.4278200120       20.2953274089
  H         7.8117780719       12.6653343675       20.2858579969
  C         7.0112554702       13.7524199061       18.4592796392
  H         2.8897388758        6.6154305384       16.1221720593
  C         3.4405121002        8.0749777006       14.5909330392
  H         2.3852724497        9.2149957880       29.2218871448
  H         1.5928885579        9.6665203915       30.6671574126
  C         3.6128659626       10.6252626737       30.0862492664
  H        -4.5600676485        9.3202340202       25.8726661136
  H        -4.9707683385        9.5021179469       27.6244648890
  C        -5.9103109526       10.8652186159       26.3688958223
  N        -1.5390515748       17.0543507613       30.2581473960
  C        -2.1484255593       16.5790943311       32.4061548947
  C        -2.4803741185       14.4297155697       33.4264521205
  H        -2.2756144355       12.7713834999       32.1362568269
  H         7.8295931103       13.4519249364       17.7579233561
  H         6.0335855229       13.1978218310       18.2648524479
  H         6.8373215954       14.8263100663       18.1944329004
  S         3.7215832860        9.7416339499       14.1143800077
  C         3.6893631484        7.0222824304       13.5173823460
  H         3.6867005899       11.2295883815       29.2172124560
  H         3.5725373213       11.2884430649       30.9186596711
  C         4.7023777082        9.5434743797       30.1522899273
  H        -5.6007069547       11.3384157927       25.3849798233
  H        -5.9880827700       11.6976968785       27.0485888807
  C        -7.1961711586       10.1034769290       26.2868433365
  S        -1.5359425530       18.5160162476       30.9624911783
  N        -2.0740053658       17.9492829979       32.4094393948
  C        -2.4129172188       15.8949300243       33.5939846024
  H        -2.6013933290       13.7060296277       34.1965298591
  C         3.7866653621        9.0165674940       12.5213548374
  N         3.8223789500        7.6923210232       12.3396909353
  O         3.3828989449        5.8624476642       13.6486293062
  H         5.6225127335       10.1006652974       30.2716527944
  H         4.7532470222        9.1466701768       29.1623855419
  C         4.4411330377        8.5042500268       31.2209842623
  H        -6.8653258635        9.1390777170       25.8612960010
  H        -7.6486978911        9.8071146450       27.2799711838
  C        -8.1375819214       10.7787024835       25.3613177175
  C        -2.6670691417       16.5246762690       34.8582112299
  S         4.3644417851        9.9950484077       11.1550598556
  C         3.9597933365        7.0067412257       11.0958815528
  H         4.1995632377        8.9715617635       32.1722324818
  H         3.6366251526        7.8520718725       30.9414372896
  C         5.7611465916        7.7530847713       31.3175890756
  H        -7.8140344267       10.8028062827       24.2730240382
  H        -8.4051048571       11.8084558728       25.5868897949
  C        -9.3970336664        9.8474270153       25.2896589283
  H        -2.8850510071       17.5539034336       34.6426682838
  C        -3.0400185329       16.1004447034       36.1042715016
  H         4.8960915726        7.2241182723       10.5820773521
  H         4.0720857291        5.9681500492       11.3162702738
  C         2.6357283147        7.1563498909       10.3767718397
  H         5.5887765642        7.0058101314       32.1019608295
  H         6.5752578209        8.2762261956       31.8081820693
  C         6.4422252078        7.1016012029       29.9527499258
  H       -10.1077454204       10.1691501956       24.5714304146
  H        -9.2322545854        8.8251776258       24.9036998501
  C       -10.2308238290        9.7638491594       26.5115402187
  S        -3.4568606554       14.5027719397       36.5696111309
  C        -3.1013715725       17.1103233032       37.2070976860
  H         2.8432151558        7.1988422211        9.3224841754
  H         2.0171504331        6.3199379351       10.8001684646
  H         2.2573151744        8.2264826924       10.4872040413
  H         7.2790167805        6.4607276974       30.2395146329
  H         6.7464229693        7.8907508169       29.2299489414
  H         5.6855101367        6.5645663115       29.3714882769
  H        -9.6996579870        9.0635425212       27.1803956404
  H       -11.2527582026        9.6022068105       26.3428892209
  H       -10.3632750669       10.7297740977       27.0257076648
  C        -3.8471642243       15.1760656875       38.1865998681
  N        -3.6391955783       16.5530468504       38.2886633965
  O        -3.0823220638       18.3277499119       37.0096322071
  S        -4.4984958217       14.2372832953       39.5106987532
  C        -3.6659327930       17.3233646190       39.5228329725
  H        -3.9443749334       18.3759819920       39.4621658213
  H        -4.5169357315       17.0060850720       40.1192972983
  C        -2.3294815641       17.0466811351       40.2376284781
  H        -2.1097439896       17.6605193791       41.0298245494
  H        -2.3110323468       16.0749332939       40.7735925356
  H        -1.5084025190       17.0441709855       39.4736114350
  H         7.0322192449       11.0513204558        3.0875454344
  C         7.6876357657       10.1568920525        3.3546923000
  H         7.0860920905        9.3164951797        3.5330416443
  C         8.5431995382       10.2460756519        4.6819132776
  C         8.6632964784       10.1267311356        2.2386816370
  C         7.6472945416       10.6512741311        5.7572334813
  H         9.0003473972        9.3092201544        4.9343800240
  H         9.3331410344       10.9320226583        4.4594357476
  H         9.5839782057        9.5874045770        2.4396877692
  H         8.9567744630       11.2384768286        2.0451372426
  H         8.1082137446        9.8571402506        1.2822063438
  C         6.6384941182        9.5850117710        6.1518387289
  H         8.3710714242       10.9477223493        6.5628767360
  H         6.9905627598       11.4527735166        5.5293999780
  C         5.9524891051        9.7672714521        7.5893841514
  H         7.2102246376        8.6594424831        6.3021879322
  H         5.9718657769        9.4054184003        5.3042243682
  C         4.7514342116       10.6469511071        7.5165931581
  H         6.8232086256       10.1904365454        8.2784309958
  H         5.6066246670        8.7796871004        8.0520994819
  C         3.5043564373        9.9228108575        7.0869421103
  H         4.5566363003       11.1919078158        8.4858842462
  H         4.9472552981       11.5504499061        6.9478350282
  C         2.1910832927       10.8453197627        6.9263320351
  H         3.3412591503        9.1350975316        7.8529687314
  H         3.6486782973        9.5053046297        6.0409535225
  C         2.5985737309       12.2045274076        6.2310084548
  C         1.9057915618       11.5203926272        8.2122710835
  C         1.0248520288       10.0769063700        6.3445219172
  C         2.5603024914       13.2513324662        7.0978388784
  C         3.1776754567       12.6423959156        5.0269841751
  C         2.0441424746       12.8608227331        8.3288750478
  C         1.5236210437       10.9076499522        9.4026184321
  H         1.3203000157        9.5735284984        5.4776638627
  H         0.8388997179        9.3486894027        7.0867533069
  C        -0.1768385365       10.9760103750        6.0612979955
  S         2.9780151467       14.7832514604        6.4311613196
  C         3.4237828249       13.9963939701        4.9561958418
  H         3.4209805517       11.8722040389        4.3255659409
  C         1.6941590311       13.4837131084        9.4617128034
  H         1.5079363520        9.8454541966        9.3880845363
  C         1.3143116062       11.5197041448       10.6089375389
  H         0.0579900303       12.0489888166        5.9584803500
  H        -0.8055604141       11.0840025740        6.9164096526
  C        -0.9797541959       10.4484256185        4.9741920008
  C         4.1142610536       14.6862358167        3.7580850556
  C         1.3826256454       12.8535815202       10.6249477698
  H         1.8561607431       14.5964969009        9.5815353647
  C         0.9662317616       11.1358786891       11.8554546862
  H        -2.0610287806       10.6305064101        5.1827550659
  H        -0.8677720106        9.3664274431        4.8780605532
  C        -0.4825125765       11.0143903159        3.6669572206
  C         4.0507018134       16.0435599150        3.3853483433
  C         4.6746772129       13.7668243791        2.7104714348
  C         1.0254432253       13.5909049584       11.9068001558
  C         0.7283073762       12.2643568398       12.6308323397
  S         0.5737182825        9.5750598067       12.5354104831
  H         0.5543359514       11.4755116201        3.7674437288
  H        -1.1478960401       11.8955212001        3.5174822945
  C        -0.6088898344       10.0471936443        2.5124868770
  N         3.6516767162       17.0428413270        4.2368204269
  C         4.3135142698       16.5373157841        2.1589984319
  C         5.0213434939       14.3781994557        1.4215558109
  H         5.1516758238       12.8245323462        3.0672609860
  C        -0.3306852148       14.3469032630       11.8329601738
  C         2.2093748781       14.3112272341       12.5511942869
  C         0.2826637985       11.7757621922       13.8975918710
  C         0.2892712690       10.4361955923       14.0274678273
  H         0.0590193122        9.3051676565        2.5369598672
  H        -1.5764061908        9.5832981812        2.4109024641
  C        -0.2472667520       10.6746654327        1.1547796461
  S         3.8717566139       18.4891551745        3.5106725369
  N         4.1834083230       17.9136273090        1.9799186021
  C         4.6894341718       15.7580582567        1.0789640217
  H         5.4639940154       13.7004448224        0.6287208493
  H        -0.1570118109       15.2899057626       11.2195075843
  H        -0.5524823364       14.8337752372       12.7477467632
  C        -1.4281703451       13.4167373933       11.2553087209
  H         2.4605146708       15.2476928514       12.0116848261
  H         1.8704569226       14.7336517047       13.5074836642
  C         3.4385407278       13.4834148259       12.7874994620
  H         0.1337618711       12.4347320821       14.7329608557
  C        -0.0153854583        9.7206164573       15.2378585040
  H         0.6215518283       10.3192280449        0.7043845215
  H        -0.2833578147       11.8057475084        1.2683210563
  C        -1.4046014977       10.2733347113        0.2309113266
  C         4.8495472149       16.3438000017       -0.2247994618
  H        -1.0618327977       12.6632685402       10.5525363813
  H        -1.9997517922       12.8350798447       12.0216655950
  C        -2.6364427176       14.1861947828       10.6228640717
  H         3.5841388220       12.8854026550       11.7775526542
  H         3.1579528108       12.8445563584       13.6074549408
  C         4.7121044309       14.3461498893       13.2027142570
  C        -0.0413025650        8.3182074198       15.3754808340
  C        -0.1792644220       10.5069940460       16.4696280625
  H        -1.7164016413        9.2735102447        0.3470107367
  H        -2.2415690863       10.7469779765        0.6279449413
  C        -1.1690610055       10.8764348034       -1.1735261424
  H         4.4052482093       17.3350973904       -0.3388470140
  C         5.3333300806       15.8520976217       -1.3471566661
  H        -2.2233108668       14.9268710488        9.8959598039
  H        -2.8779400201       14.6775587201       11.5781583671
  C        -3.7472623227       13.1838574774        9.9866043461
  H         4.8340038755       15.0012875480       12.3592547937
  H         4.4779756255       15.1163986450       13.9223207039
  C         6.0126175958       13.5348137878       13.5138814081
  N         0.1799096703        7.3743132942       14.4236757518
  C        -0.3686058474        7.6247422490       16.5290374551
  C        -0.2834011190        9.8337313550       17.6996126693
  H         0.0283943394       11.5843738527       16.4322985455
  H        -1.1492641614       10.0806136205       -1.9500035790
  H        -0.1874102853       11.3301908625       -1.3745333876
  H        -1.9702864415       11.5602344734       -1.5732419108
  S         5.9552514407       14.2937685015       -1.6679464713
  C         5.3997183117       16.7784094128       -2.5233053451
  H        -3.2475004344       12.3984923707        9.4376002656
  H        -4.4607938442       12.8172873669       10.7600807591
  C        -4.6249927293       13.9494479197        9.0020640936
  H         6.1249440017       12.6549309344       12.8594603911
  H         5.7775403157       12.9654060342       14.3663515311
  C         7.2271851448       14.5053268799       13.5644983729
  S         0.1936531287        5.9205073061       14.9753281636
  N        -0.4986167784        6.2957642171       16.3675312880
  C        -0.5927645636        8.3412865815       17.7173336472
  H        -0.3472656614       10.4682105577       18.5941945807
  C         6.0583269133       14.8464009102       -3.3073956991
  N         5.9463338034       16.1608449509       -3.5388201376
  O         5.2973572836       17.9735322497       -2.3443675197
  H        -4.6710858426       15.0004973681        9.1822592911
  H        -4.1706323056       13.7726624265        8.0363580728
  C        -6.0327551582       13.3283156323        8.9620101815
  H         8.0950819265       13.8218550675       13.6943019517
  H         7.5049771158       15.0542408543       12.6392739146
  C         7.2708990533       15.5302415915       14.7017606172
  C        -1.1104530066        7.6266803130       18.8450852253
  S         6.4950273587       13.7614941647       -4.6843202834
  C         6.0978473356       16.8944725643       -4.8073389247
  H        -6.2788596809       13.2152820145        7.9224231150
  H        -6.1294404848       12.3923548813        9.5238403542
  C        -7.0049809142       14.3239112118        9.5748899529
  H         8.2404879926       15.7708632024       15.1252722729
  H         6.6748004307       15.2428454939       15.5532296763
  C         6.8522883575       16.9550521842       14.3463061315
  H        -1.0729650326        6.5545646105       18.7920214419
  C        -1.4611398693        8.0217115757       20.0783345109
  H         7.0384234828       16.7085470786       -5.3667210969
  H         6.3390458902       17.9090239542       -4.5181809302
  C         4.8674877119       16.7772575158       -5.7344265140
  H        -7.5113561974       14.8131793409        8.7173727215
  H        -6.4889035138       15.0377395230       10.2165767115
  C        -8.2060715352       13.7003289745       10.2473454203
  H         7.4021024634       17.3503025915       13.4962172452
  H         5.7603912466       16.8832262444       14.1265053714
  C         7.1979111051       18.0362825018       15.5249488082
  S        -1.7196391426        9.6795606631       20.5696741479
  C        -1.7116597661        6.9191994618       21.0443682996
  H         5.1410802681       16.1609240987       -6.6145948253
  H         4.6765351608       17.8478634366       -6.1126147068
  H         3.9944301699       16.3091874810       -5.4056530918
  H        -8.1826257591       13.9021022888       11.2139655350
  H        -9.0732924382       14.1263145014        9.7625793439
  H        -8.2274114255       12.6067901047       10.0798310077
  H         7.3529561535       17.4180815280       16.3861715405
  H         8.1603729589       18.5027381877       15.2279495208
  H         6.2668652300       18.6043752951       15.5279088282
  C        -2.2922405345        8.7948478408       22.0655983090
  N        -2.2545320910        7.4241650423       22.1174117757
  O        -1.4275543724        5.7080095709       20.8691082724
  S        -2.8733063849        9.5843624562       23.4958018599
  C        -2.3685061181        6.6240575924       23.3094548413
  H        -2.7969560832        5.5970338568       23.0946876554
  H        -3.1262729325        7.0741547433       23.9646698477
  C        -1.0423918352        6.5313802316       23.9786760865
  H        -0.4910692091        5.7212917488       23.5736122953
  H        -1.0205186925        6.3274171932       25.0833684810
  H        -0.5364013640        7.4028258578       23.7364080274
