352
i =
  H        -3.5361894245       14.7328220468       15.7503519292
  C        -3.1036092368       13.7190310693       15.7921349282
  H        -3.8671284484       12.9535398461       15.9224663613
  C        -2.0037421867       13.6436347309       16.8115821652
  C        -2.4211341444       13.3621545929       14.4848509030
  C        -2.4291067526       14.0653400878       18.2712522313
  H        -1.5181892726       12.6807368544       16.9387726304
  H        -1.1975630916       14.3628762385       16.6318170994
  H        -1.6558674327       14.1568156800       14.1839676052
  H        -1.9127744394       12.4195566829       14.6021413439
  H        -3.1253388446       13.2573070825       13.6082833209
  C        -1.5184398290       13.3357880673       19.2954496681
  H        -3.4705217192       13.7468606689       18.4400208636
  H        -2.3542690757       15.1068319848       18.3863718631
  C        -2.0411133512       13.4868553711       20.7400640962
  H        -1.5004756348       12.2694424068       19.1890764613
  H        -0.5149160723       13.7040032742       19.2162502421
  C        -1.0584452923       12.9149382345       21.7654223620
  H        -2.8897451463       12.8049435025       20.7468695812
  H        -2.4735481114       14.3975261963       21.0742757479
  C         0.1690189643       13.8439993696       21.9365051059
  H        -1.4419231170       12.8993902229       22.7864647151
  H        -0.7656323636       11.8964137389       21.4852206692
  C         1.3669577845       13.3063539994       22.7591247630
  H         0.5542788038       14.1648244147       20.9879024579
  H        -0.0919158409       14.8000421860       22.4072464463
  C         1.8437141764       12.0233506936       22.0575452804
  C         0.9685031531       12.6212115566       24.0224569974
  C         2.4886186200       14.4202170691       22.8488233250
  C         1.6430000781       10.9285657953       22.8374112736
  C         2.4119530594       11.7247355071       20.7945401642
  C         1.1815006985       11.3003947623       24.0662009518
  C         0.2927558844       13.1741141364       25.1258490165
  H         2.7814339743       14.7858969228       21.8528331311
  H         2.1038565692       15.3490209997       23.1904965957
  C         3.6064641978       13.8861915984       23.6304131768
  S         1.9367685389        9.4442296179       22.0114310390
  C         2.4489668281       10.3511034539       20.6135831739
  H         2.5525932661       12.5309611099       20.0793205020
  C         0.7089015749       10.6062578576       25.1751619755
  H        -0.0587070003       14.2440838395       25.0877967986
  C        -0.0109502968       12.4891452455       26.2691495033
  H         3.7933280470       12.8293164655       23.5430436002
  H         3.2175541351       14.1708042828       24.6269212290
  C         4.9125401385       14.6307803867       23.4118091338
  C         2.7537857727        9.6469918073       19.3138987777
  C         0.0818704825       11.1491615368       26.3356794459
  H         0.7758430521        9.5591188523       25.1324795296
  C        -0.4635037160       12.8440625412       27.4920352304
  H         5.6847396643       14.2660565641       24.1171270659
  H         4.7127984554       15.6430932593       23.7194851026
  C         5.4886815477       14.6616943128       21.9665491023
  C         2.7714305526        8.2420931241       19.1406634756
  C         3.0670762038       10.5011726422       18.1745093557
  C        -0.4116100224       10.3672240990       27.5787461093
  C        -0.8192211770       11.7390139044       28.2404235977
  S        -0.7610928160       14.2860303999       28.3008129156
  H         6.1326036731       15.4736443554       21.8124645381
  H         4.6960074574       14.9820316957       21.3899982236
  C         6.0364111440       13.3883322140       21.4032126147
  N         2.4604119894        7.2796473188       20.0929174246
  C         3.0520909873        7.6810527385       17.9160492958
  C         3.3063435962        9.9095215224       16.9202326376
  H         3.0245598090       11.6201811932       18.3447672832
  C         0.6951848811        9.6630855532       28.3188340587
  C        -1.7195921183        9.5859981612       27.2682090498
  C        -1.2443648553       12.0679666869       29.5462146747
  C        -1.3593503145       13.4062699977       29.6718012716
  H         7.0169514571       13.3482003762       21.7900595963
  H         5.5194818336       12.5217707337       21.9308848723
  C         5.8829788530       13.3111540050       19.8807050529
  S         2.7128177011        5.7987859228       19.4722875168
  N         3.0825022437        6.2972747690       17.9628337156
  C         3.2811338956        8.4572464957       16.7670190618
  H         3.5164517469       10.5546222601       16.1345798242
  H         0.8314343545        8.7006771697       27.7569827288
  H         0.3512150603        9.4116850735       29.2959908706
  C         1.9833127087       10.3173934120       28.6076473074
  H        -1.3759951592        8.8782913587       26.4316014070
  H        -1.9940324534        8.9783874464       28.0853879538
  C        -2.9580614100       10.5269004883       26.8360089080
  H        -1.4553823933       11.2478278206       30.2678104295
  C        -1.6178366350       14.1137793977       30.9837235004
  H         5.2235110980       14.1679809130       19.6743108240
  H         5.5411750188       12.3667924024       19.5272877435
  C         7.2131832516       13.5789372408       19.2706972925
  C         3.5810568423        7.6406109268       15.5522274635
  H         2.5527990420       10.2957289225       27.6754618622
  H         1.9238872617       11.3724359492       28.8360952793
  C         2.6908642198        9.6351357315       29.8512177330
  H        -2.7587776440       11.1108676445       25.9579891715
  H        -3.2023115702       11.2511992081       27.5804420065
  C        -4.2432470143        9.7371092384       26.5257486703
  C        -1.6208647641       15.4855626092       31.1785773817
  C        -1.8499614685       13.2712730523       32.2139330055
  H         7.7371603767       14.5245893829       19.5958559870
  H         7.9274733301       12.7575236716       19.5330787519
  C         7.2151227188       13.7382606256       17.7469400563
  H         3.4064042669        6.5651535774       15.5252017885
  C         3.9541881777        8.0350293412       14.2486813228
  H         2.7960978554        8.6436969245       29.5256335723
  H         2.0105063146        9.6728705710       30.6876062259
  C         4.0446415917       10.4492434371       30.0575371957
  H        -3.9649370749        9.0418580863       25.7981148439
  H        -4.6562182953        9.3697682288       27.5057129136
  C        -5.3247275810       10.6697070369       25.9326740498
  N        -1.4917878243       16.4467939624       30.1819107627
  C        -1.9081075943       16.0765485092       32.4636302946
  C        -2.0900267794       13.8457787778       33.4449914155
  H        -1.8164254179       12.2088809312       32.1270598991
  H         8.1357699248       14.0166660211       17.4014263559
  H         6.9908787800       12.8261953468       17.2012431865
  H         6.4404356977       14.4503231118       17.4599867643
  S         4.2743534127        9.6521424187       13.8088356805
  C         4.1810182366        7.0094239809       13.2285720086
  H         3.9475282221       11.4640628008       29.7188349141
  H         4.2810218375       10.5034069520       31.1189358889
  C         5.3087153424        9.8797189097       29.3003749686
  H        -5.0250143258       11.1575078750       25.0166310200
  H        -5.4711407158       11.4704285353       26.6632674088
  C        -6.6328075474        9.8996250147       25.6590097447
  S        -1.5654521207       17.9123161170       30.9106126625
  N        -1.8549914539       17.4442251510       32.4300283246
  C        -2.0710740710       15.3418328118       33.6510931586
  H        -2.1838539406       13.1852992673       34.3058691947
  C         4.5570119865        8.9872268157       12.2195713446
  N         4.5223676459        7.6304828080       12.0751592029
  O         4.0083687969        5.7825964731       13.3219878660
  H         5.8980632506       10.6078580871       28.7828745336
  H         5.0679386599        9.1927918787       28.4867458065
  C         6.1572275639        9.0736719156       30.3058578531
  H        -6.3413888337        9.0763039065       24.9584853326
  H        -7.1230935677        9.4708608528       26.5442677154
  C        -7.6648142105       10.9060523192       24.9809206024
  C        -2.4193191857       16.0133829913       34.8652264159
  S         5.1486363090        9.9216744563       10.8464404237
  C         4.6615075985        6.9537849198       10.7960641184
  H         7.1435150293        8.8222290554       29.9825644572
  H         6.4083757384        9.6489510715       31.1776339891
  C         5.4723572192        7.7575569481       30.7210213737
  H        -7.2744587285       11.1162521492       24.0116448861
  H        -7.7582232483       11.8079039932       25.4882390548
  C        -8.9774018707       10.2204551754       24.7616778647
  H        -2.2399929920       17.0962950392       34.7487123276
  C        -3.0432219378       15.6270883144       36.0257867821
  H         5.3225740977        7.4858902938       10.1308505005
  H         5.0374853866        5.9065644656       10.7518298072
  C         3.3185047401        6.9595214064       10.1067723575
  H         4.9919842611        7.3439087268       29.8085291511
  H         4.6511836771        7.9505929373       31.4361087494
  C         6.3566110539        6.6746039566       31.2658461250
  H        -9.6069063835       10.8099945991       24.0779830338
  H        -8.7445297709        9.3006727781       24.2733924208
  C        -9.7621204842        9.8826545081       26.0360002028
  S        -3.6695001565       14.0414881020       36.2943722537
  C        -3.2006869224       16.5583666036       37.1471529162
  H         3.2608766770        6.5638949128        9.1074519902
  H         2.4719610165        6.5538118515       10.6729296202
  H         3.1234299991        7.9523595977        9.9506941250
  H         6.6741341840        6.9651189042       32.2464228593
  H         7.2426249853        6.5752500844       30.6128339652
  H         5.7631101402        5.6975495820       31.3603572537
  H       -10.7862223903        9.5984684182       25.9347085296
  H        -9.7785766308       10.7147424424       26.6954243328
  H        -9.2044632985        9.1429916679       26.5997717779
  C        -4.2703959008       14.6540760704       37.8383266683
  N        -3.9212780159       15.9505917742       38.0881206815
  O        -2.7756367864       17.7807483068       37.1420813328
  S        -5.3145281164       13.7586597737       38.9133317895
  C        -4.2441081149       16.6005851288       39.3032015467
  H        -4.5147026272       17.7088288978       39.1344231066
  H        -5.1417845460       16.1903806650       39.6735076710
  C        -3.0407002036       16.5389900758       40.3264363451
  H        -2.1087423881       16.2329785708       39.7852177576
  H        -2.9573748373       17.4512156451       40.8687882905
  H        -3.3021289886       15.7340649486       41.0955366792
  H         7.4171575934       11.9230253240        2.7408075512
  C         7.8931904846       10.9053690138        2.7330328107
  H         7.0947026565       10.2219421273        2.8853252301
  C         8.9182836988       10.8449282493        3.8602246431
  C         8.7448312600       10.7075652720        1.3477778584
  C         8.2036249766       11.0371741270        5.1654719892
  H         9.5726637810       10.0000568779        3.8125139937
  H         9.6461214337       11.6250672580        3.8016096952
  H         9.6418806993       11.3674054020        1.3676607195
  H         8.1512698897       10.8371120057        0.4779380358
  H         9.0264017091        9.6262101755        1.3673173889
  C         7.6110277313        9.7975457058        5.7658429205
  H         8.9137890181       11.3017714217        5.9027433585
  H         7.3795317700       11.8587253541        5.1462382983
  C         7.1180125535        9.8582502029        7.2489469791
  H         8.3124757664        8.9975953267        5.7803407077
  H         6.8099295545        9.5622469170        5.0998277716
  C         5.8121749493       10.6959352686        7.2483902509
  H         7.8957305741       10.3516778797        7.8229528409
  H         6.8888129097        8.8890585196        7.7176596541
  C         4.5459700138        9.9596896351        6.8409306307
  H         5.7332585806       11.2057526730        8.2294424305
  H         5.8771260549       11.4886331155        6.5842139706
  C         3.2965972025       10.8780536958        6.5680971982
  H         4.3266359439        9.1337442531        7.5730370657
  H         4.6417608737        9.4151870980        5.8842593440
  C         3.6215081784       12.2025917818        5.9619647923
  C         2.8898637165       11.5246970967        7.8432891625
  C         2.1940041743       10.1857487222        5.7922414388
  C         3.3088403327       13.2443714515        6.7896727284
  C         4.2275245799       12.6988512699        4.7592957021
  C         2.8641136879       12.8225668507        8.0379003986
  C         2.3666565077       10.8030584858        8.9033326654
  H         2.6064408467        9.6087094654        4.9357617829
  H         1.6744716260        9.4920858350        6.4290072695
  C         1.0384716885       11.1672344534        5.4041701173
  S         3.5554807465       14.7747817806        6.1191245372
  C         4.2100917683       14.0506028616        4.7381152241
  H         4.6177756225       11.9689630702        4.0801933436
  C         2.4541416531       13.3880315500        9.1561892638
  H         2.4031403340        9.7038141723        8.9071727027
  C         1.9295753570       11.3451388558       10.0838812758
  H         1.4168510497       12.1262475204        5.0149022328
  H         0.4031617321       11.5237158347        6.2134286853
  C         0.0984958943       10.6563729905        4.2572068318
  C         4.4705300383       14.8836095314        3.5575661167
  C         1.9751678494       12.7248586146       10.2898347792
  H         2.4014382293       14.4483635698        9.1164472458
  C         1.3888964951       10.9184346087       11.2407821184
  H        -0.7579217608       11.2810361573        4.3158960374
  H        -0.4936962965        9.7726915278        4.5684905948
  C         0.6761438382       10.3664150923        2.8659931221
  C         4.4522244172       16.2834384501        3.3979309919
  C         4.6756216034       14.1434254208        2.3116344021
  C         1.4973770578       13.4097135977       11.5482083176
  C         1.1459436532       11.9959510219       12.0877356097
  S         1.0750690332        9.4081814745       11.9372765912
  H         0.7862218680        9.3008640599        2.7541531898
  H         1.6761015633       10.8080959708        2.7430376296
  C        -0.2047216418       10.8283995650        1.7119171959
  N         4.1650154672       17.1892100116        4.4236705790
  C         4.6573461046       16.8857381484        2.2045188306
  C         5.1081152475       14.7844948496        1.1683448182
  H         4.7993320264       13.0776670634        2.2656546282
  C         0.3301606708       14.3788499556       11.3346893451
  C         2.6740730112       14.1834819178       12.2455907115
  C         0.7988977611       11.5216461821       13.3964068101
  C         0.6436444083       10.1781444003       13.4406610501
  H        -1.2341138451       10.7806115927        1.8737557754
  H         0.0955090370       11.8854139180        1.4394355466
  C        -0.0289563610       10.0632683284        0.3972090213
  S         3.9682108122       18.6611480075        3.7193340571
  N         4.5058136054       18.2315056531        2.2482757939
  C         5.0616975605       16.2348699207        1.0378261431
  H         5.2633488308       14.1631437435        0.3189713872
  H         0.7492373350       15.0160385366       10.5916970308
  H         0.0984387312       14.9829604740       12.2538697105
  C        -0.9512479427       13.6920727555       10.8498101302
  H         3.0423012504       14.9996995324       11.5802562069
  H         2.2860083030       14.6278223217       13.1535693787
  C         3.9372542265       13.3381763780       12.5141326206
  H         0.5738045363       12.1492249054       14.1771279468
  C         0.2990994869        9.4411081811       14.6545012766
  H        -0.7351428574        9.3331460479        0.2402396789
  H         0.9791426685        9.6621002584        0.4070713734
  C        -0.2217320687       11.0003245220       -0.8168452853
  C         5.3301818755       17.0254245496       -0.1300071301
  H        -0.8878813132       13.0867810179        9.9480105291
  H        -1.3425618278       13.0290693019       11.6621537477
  C        -2.1224591563       14.6938871290       10.7410971269
  H         4.5487489919       13.1268652917       11.6310497465
  H         3.5940281255       12.3831404801       12.8841214398
  C         4.7899479228       13.8423061032       13.6980089521
  C         0.3041850129        8.0602067315       14.8056189927
  C         0.1367051640       10.2020151426       15.9366269927
  H         0.3570739033       11.8573993912       -0.6200316022
  H         0.1437975850       10.5445235203       -1.7652572083
  C        -1.6671770248       11.4413225223       -1.0675281571
  H         5.2185627685       18.0820172488        0.0636118855
  C         5.5661918322       16.6174338207       -1.4693044981
  H        -1.7564952150       15.5022144788       10.1004576633
  H        -2.4567669478       15.1914838672       11.7239408799
  C        -3.3864395494       14.0282928438       10.0610670072
  H         4.1085754827       14.4861982337       14.2324900888
  H         5.0528579988       13.0250417961       14.3255368523
  C         6.0107831715       14.6129774727       13.2510636472
  N         0.3696672896        7.1492189840       13.7635785908
  C        -0.0096096050        7.4332693028       15.9789171168
  C        -0.0990024703        9.4934644395       17.0895960383
  H         0.4017641462       11.2091146050       15.9471610266
  H        -1.7741345011       12.0560084713       -1.9480731680
  H        -2.1048423258       12.0632490874       -0.3136346416
  H        -2.2619041319       10.5547433846       -1.1940206465
  S         5.7875953240       15.1151162087       -2.0717823181
  C         5.4537582515       17.7305160539       -2.4805098872
  H        -3.1459268630       13.5210096880        9.0565354367
  H        -3.6608268254       13.3671453428       10.8974112677
  C        -4.6137086126       14.9218683536        9.9165649379
  H         5.6993057749       15.4377767216       12.6856714072
  H         6.6691764100       13.9454850082       12.6623049584
  C         6.8841151920       15.1061156102       14.3340456534
  S         0.3630397424        5.6293991771       14.3456994153
  N        -0.1061403907        6.0582571977       15.8710459221
  C        -0.3022914469        8.0934630223       17.1825530827
  H        -0.1937196765       10.0203659695       18.0083493745
  C         6.0872376281       15.8885007864       -3.6060573037
  N         5.7882047085       17.2041478030       -3.6757701603
  O         5.2519738741       18.9383850514       -2.3430166486
  H        -4.9349352560       15.5525857482       10.8161067373
  H        -4.2860656756       15.6652833921        9.1179653865
  C        -5.7702914145       13.9395962421        9.4790883607
  H         6.2488569626       15.6672898546       15.0847431974
  H         7.1442289543       14.2657216725       14.8579357952
  C         8.0609488427       15.8200851392       13.7533000054
  C        -0.6613889817        7.3610013723       18.3115179627
  S         6.1463064127       15.0787563854       -5.1181225428
  C         5.7421339157       18.0244134193       -4.8852115841
  H        -5.4627655628       13.1551269356        8.8219153215
  H        -6.0887038240       13.3362286530       10.3356109612
  C        -7.0191706399       14.4865236415        8.8728432675
  H         8.0034987519       15.5142558498       12.6661841241
  H         8.9708251749       15.6058199938       14.1752809786
  C         8.0651709832       17.3635056771       13.7021311284
  H        -0.5164729301        6.2892348546       18.3467194134
  C        -1.0359573600        7.7225135228       19.5858568417
  H         6.6312421751       17.8734634945       -5.5344359382
  H         6.0185885862       18.9322338618       -4.5560517226
  C         4.4403982123       17.8874367684       -5.6597471563
  H        -7.3479249056       13.8461886751        8.0518787393
  H        -6.7813065079       15.5207970425        8.4544414270
  C        -8.0139528435       14.6303520900        9.9981194249
  H         8.8803444768       17.7012551454       13.0028746038
  H         7.0407414611       17.6561633159       13.3310529851
  C         8.1020463852       17.8891924657       15.0995934653
  S        -1.6629597470        9.3170196000       20.0304482193
  C        -1.0199641773        6.6628136435       20.6391936282
  H         3.7178468924       17.1450956247       -5.3234548778
  H         4.6374616051       17.8017666842       -6.7522622556
  H         3.9592778277       18.8662952376       -5.5679936050
  H        -8.3221901774       13.6432314752       10.2857278745
  H        -7.6236948133       15.1043728581       10.8995507253
  H        -8.8376093648       15.0693828499        9.5762350384
  H         8.5442973744       17.1836528512       15.8192914281
  H         8.6883946754       18.7855528613       15.2210737067
  H         7.0869614000       18.1040371871       15.5001581027
  C        -1.9565535781        8.5151118867       21.5441515997
  N        -1.5550393960        7.2060200541       21.7222893185
  O        -0.5444948907        5.5202601131       20.4640687486
  S        -2.6834221067        9.3431430504       22.9146025274
  C        -1.7410536167        6.4147119188       22.9291016283
  H        -1.9435058230        5.4140642910       22.5733735296
  H        -2.6806510378        6.6476203476       23.3734944552
  C        -0.6012180407        6.6606260881       23.8948558812
  H        -0.7846606688        7.4289846206       24.6801895102
  H         0.2469622828        7.0057093218       23.2622816223
  H        -0.3362919748        5.7146662492       24.4092234471
