352
i =
  H        -2.3252379263       14.9953558888       16.1042099089
  C        -2.8266422036       14.1187411417       16.5056916436
  H        -3.7841518003       14.5260187683       16.9071711109
  C        -1.9314493599       13.6175862980       17.6902775374
  C        -3.0280495163       13.2467758196       15.2793307698
  C        -2.4419468613       14.0459378357       19.0044123167
  H        -1.8919175340       12.6123111858       17.6316039113
  H        -0.9298640585       13.9742887948       17.5147899660
  H        -2.2949197904       12.6129336622       15.0253024391
  H        -3.9549123327       12.7044515172       15.2260627330
  H        -3.0860812194       13.9498032685       14.4233502009
  C        -1.9250257502       13.1072353183       20.0788510475
  H        -3.4976800235       14.0490671200       19.0498572972
  H        -2.0695296332       15.0687957372       19.1731381858
  C        -2.3580819558       13.3789274812       21.5244308524
  H        -2.1768215872       12.0115467580       19.9437325621
  H        -0.7942851034       13.1206030222       19.9982443254
  C        -1.2438007158       12.9433064316       22.3832011753
  H        -3.1374261240       12.6750712450       21.6736182911
  H        -2.7542344953       14.3386180788       21.7442967969
  C        -0.0147989763       13.8284408620       22.5718258438
  H        -1.6007977193       12.7519230972       23.3441238874
  H        -0.9080454748       11.9486847727       22.0938224299
  C         1.1923044789       13.1274873578       23.2573894081
  H         0.2967630394       14.2511974878       21.6435281235
  H        -0.2848574510       14.6258732646       23.2309700702
  C         1.5686277578       11.8251859224       22.6619011685
  C         0.8615095679       12.4248854254       24.4959305220
  C         2.4297824801       14.0329198751       23.4721556381
  C         1.4305423473       10.6675547371       23.4112657954
  C         2.1247139962       11.4216794082       21.4031129621
  C         0.9369180024       11.0689042396       24.6460292999
  C         0.3636593661       12.9972446004       25.6418692257
  H         2.5199999267       14.5331686647       22.4926362372
  H         2.2347077041       14.9144811753       24.0649912157
  C         3.8289239808       13.4210042218       23.6867684834
  S         1.8286152165        9.1567662382       22.6648455275
  C         2.1981535088       10.0317925078       21.2591099414
  H         2.5076337226       12.1860302081       20.7193428315
  C         0.5541898946       10.4407215165       25.7908526457
  H         0.0620107037       14.0317455163       25.6256752500
  C         0.0070296443       12.3651661397       26.8193504716
  H         4.1637894828       12.8510010992       22.8602485477
  H         3.6662529210       12.8905573845       24.5961146261
  C         4.8963109260       14.5506028290       23.9675040602
  C         2.6547094499        9.4036277543       20.0237374592
  C         0.0529018459       11.0122985035       26.9167069245
  H         0.5112618957        9.3507289867       25.7227633448
  C        -0.4705468575       12.7705362026       28.0273840395
  H         5.5971439814       13.9843248258       24.5982083421
  H         4.4549226393       15.4550083211       24.3936628600
  C         5.5327216974       14.9868124005       22.6679331853
  C         2.6210699412        8.0529460898       19.7536293952
  C         3.0744756451       10.3081888434       18.9107368947
  C        -0.4741564404       10.3325174370       28.1716167935
  C        -0.7458619831       11.6645318432       28.8259373734
  S        -0.8215621504       14.2298772116       28.7843931538
  H         6.0268152668       15.9301793042       22.8723007476
  H         4.7653549572       15.2229379487       21.9630759317
  C         6.4835528049       13.9429255151       22.1145117035
  N         2.3384474181        7.0111458018       20.6443032038
  C         2.9331067195        7.5510268890       18.4922274321
  C         3.3372563199        9.7839828285       17.6149406179
  H         3.3061318163       11.3308420983       19.0496754178
  C         0.6001704439        9.6052953924       28.9653428021
  C        -1.7670491586        9.5608196651       27.9130830517
  C        -1.1648114742       12.0834968549       30.0549476549
  C        -1.2243067036       13.4203500549       30.2492067910
  H         7.4669059456       14.3769085756       22.1071942564
  H         6.4903283511       13.0580008600       22.7502938188
  C         6.1068527737       13.4654663112       20.7173017877
  S         2.3093926357        5.5750762733       19.8983838949
  N         2.9321232859        6.1440182643       18.5285198350
  C         3.1659204735        8.3268002845       17.3359696504
  H         3.5850988629       10.4487632464       16.8243081755
  H         0.9989792838        8.7171485440       28.3838067164
  H         0.0995671727        9.2501232646       29.9078082086
  C         1.8566122552       10.3914672300       29.2658823032
  H        -1.4699537925        8.6429089452       27.4326100215
  H        -2.0758790086        9.2236371583       28.8962285090
  C        -2.8317895768       10.4310888395       27.3062458311
  H        -1.3960364765       11.4258294538       30.9104135173
  C        -1.5155685874       14.1256066677       31.5182845233
  H         5.5355590252       14.1760934512       20.1988933087
  H         5.5162592463       12.5753869913       20.8302786462
  C         7.4381707507       13.2939181007       19.9365248903
  C         3.3171792205        7.6281559344       16.0923002140
  H         2.5260947240       10.0220145512       28.5093892177
  H         1.8037937940       11.4542436374       29.0842030112
  C         2.6533052637       10.1653360777       30.5108419987
  H        -2.5222220881       10.8989653657       26.4172768413
  H        -3.3129783766       11.1070570630       27.9790828229
  C        -4.0800744513        9.6442400904       26.8959221996
  C        -1.6235968432       15.5430954685       31.6931355684
  C        -1.7639288245       13.4268451311       32.7314116972
  H         8.2130999273       14.0173766484       20.1793864843
  H         7.6947236603       12.2603025496       20.0857594720
  C         7.0985412360       13.3468789950       18.4350289279
  H         3.3669321483        6.5422590015       16.0161466124
  C         3.5293176138        8.0826490103       14.8104845632
  H         2.4750264313        9.2160556903       30.9859759893
  H         2.3061025788       10.9285918166       31.2009353040
  C         4.1066466446       10.3648205470       30.3397677764
  H        -3.7036643382        9.0548383554       26.0816199172
  H        -4.3500990127        8.9137799591       27.6698669528
  C        -5.1854534960       10.5099021334       26.3114789649
  N        -1.4800181674       16.4539183183       30.6413896036
  C        -1.8141704313       16.1934587466       32.8731319289
  C        -2.1019387786       14.0421812642       33.9614258380
  H        -1.6031400337       12.4177681042       32.6544093141
  H         6.1050520287       13.1403249398       18.2764729819
  H         7.2548160731       14.3421556583       18.0782224545
  H         7.7668238382       12.6743597533       17.9173128218
  S         3.6914279247        9.7353990565       14.2753606230
  C         3.5917392610        7.0511106310       13.7037260151
  H         4.3192906512       10.9748491309       29.4449502609
  H         4.5232271737       10.8411198112       31.2301425106
  C         4.7276254471        9.0815567204       30.0582424683
  H        -4.7661331320       11.1819818222       25.5984044986
  H        -5.6198635857       11.0817872295       27.1577577965
  C        -6.3584224306        9.7533757090       25.8283820637
  S        -1.6546038624       17.9958010614       31.1945421858
  N        -1.9770547429       17.5767525510       32.7670338611
  C        -2.0919284897       15.5264198154       34.0588124969
  H        -2.3273573709       13.4714316915       34.8392416932
  C         4.0357860248        9.0150854772       12.6690896277
  N         4.0120298876        7.6712778966       12.5799062437
  O         3.7027867861        5.8504733385       13.8923219009
  H         5.8012021630        9.3121524629       29.7403103872
  H         4.2907397287        8.4850983228       29.2081005128
  C         4.9473454323        8.2617260832       31.3292316714
  H        -6.1576435259        9.0780591524       25.0421785902
  H        -6.6978084552        9.1736700377       26.7607501012
  C        -7.4641167694       10.6945174886       25.2531744875
  C        -2.4673244526       16.2082692514       35.2834153286
  S         4.3666715402        9.9080987913       11.1896532265
  C         3.9559972478        6.9098093381       11.2603461172
  H         5.5704639077        8.7721021089       31.9986354061
  H         3.9684346170        8.1444998042       31.8059807081
  C         5.4890008079        6.8358161040       31.0718762148
  H        -7.0701287151       11.2413477218       24.3572764356
  H        -7.7067432870       11.5028201300       26.0363797107
  C        -8.7032285345       10.0320890742       24.7817349479
  H        -2.2429032500       17.2885649337       35.3340894213
  C        -2.9637070102       15.7222366444       36.4581358653
  H         4.6760135096        7.3564240717       10.6148825752
  H         4.2313342868        5.9135508510       11.4594673043
  C         2.5090659847        6.8643631407       10.7412368602
  H         5.4620641028        6.6689922790       30.0070866284
  H         4.7901447892        6.1260419880       31.4319329764
  C         6.8872617620        6.5433566044       31.5863761832
  H        -9.1117418687       10.6693815759       24.0331792364
  H        -8.3646964087        9.0790815229       24.3526435631
  C        -9.8140268351        9.9679744999       25.7723855970
  S        -3.6382765834       14.1658113104       36.8022859827
  C        -3.1031601918       16.7631595443       37.5800096351
  H         2.3331373180        6.1037446460        9.9757910247
  H         1.7337666836        6.7663130822       11.4851582777
  H         2.2440392832        7.8106333188       10.2448953362
  H         6.9573382148        5.4262295797       31.5324326565
  H         6.9152242064        6.7598505620       32.6513760454
  H         7.6816438891        7.0069346355       31.0424917082
  H       -10.3534063069       10.9059194474       25.8015037316
  H        -9.4312165060        9.7083054223       26.7559865620
  H       -10.5255638969        9.1560479619       25.5377086367
  C        -3.9695406173       14.8797269743       38.4201301819
  N        -3.7682683558       16.1636226656       38.6191669873
  O        -3.0266228359       18.0173363420       37.4791648278
  S        -4.3763511862       13.7833964921       39.7789568544
  C        -3.8767949561       16.9138089683       39.9117125956
  H        -3.8124417655       17.9775028232       39.6955929549
  H        -4.8417932822       16.7220786718       40.4198413299
  C        -2.7341825417       16.7677009402       40.8633715737
  H        -2.9578913306       16.0531563256       41.6310233235
  H        -1.8119849295       16.4508171991       40.4130260157
  H        -2.5973574447       17.6725369468       41.4450325250
  H         7.0493417126       10.8982332938        3.6706061383
  C         7.9661644603       10.4032214327        3.6280116019
  H         7.7775237326        9.3380870995        3.7164765030
  C         8.7952296792       10.8655883410        4.8781269349
  C         8.5856982559       10.5507306212        2.2549395275
  C         7.8995066257       11.0234427649        6.1460035982
  H         9.6060845881       10.1286731567        5.0155319584
  H         9.3091726432       11.7783681369        4.6683296823
  H         7.7981740802       10.7903564118        1.4990035243
  H         9.2071026171        9.6309657857        1.9196385010
  H         9.3398040543       11.3715891362        2.1717122445
  C         7.1623464327        9.6892254116        6.4697658048
  H         8.5119065056       11.3127580374        7.0201658848
  H         7.1774901590       11.7986321647        6.0488102853
  C         6.3902623814        9.6113355557        7.7402190906
  H         7.9102897684        8.9194508925        6.5373646825
  H         6.5218737906        9.4837448844        5.5533502252
  C         5.1946782739       10.5237291106        7.6792375524
  H         6.9473666989        9.4292258765        8.6219919903
  H         5.9111100560        8.6026948092        7.6655404186
  C         3.8789646069        9.8638886022        7.2247540532
  H         4.9765472123       10.9927975439        8.6702179680
  H         5.3896680492       11.3374482945        6.9900384651
  C         2.6263117402       10.7664948993        7.0013981482
  H         3.6667982601        8.9425919801        7.7929993905
  H         4.1089741107        9.4930188863        6.2847804928
  C         3.0704604085       12.0541933672        6.3486562833
  C         2.2448998416       11.5242200519        8.2054814012
  C         1.5561911520       10.1211311972        6.1434922615
  C         2.7309687545       13.2382286233        7.0818265522
  C         3.6557705838       12.3732107703        5.0944857580
  C         2.2810163829       12.8711169838        8.3270023273
  C         1.8199135209       10.8860090110        9.3720394926
  H         2.0729987018        9.8623201755        5.2392584700
  H         1.1794564524        9.2716717738        6.7833721282
  C         0.3810821854       10.9920215629        5.7577284437
  S         3.1839954174       14.6515922048        6.2508373114
  C         3.7036595825       13.7136186985        4.8744996016
  H         3.9765997302       11.5759525061        4.4928122098
  C         1.9044179014       13.5135087609        9.4939538381
  H         1.9309927154        9.7937095070        9.3934933415
  C         1.4089631467       11.5341446786       10.5163875648
  H         0.6332753435       11.9233225361        5.2464545770
  H        -0.1624876406       11.2027452778        6.6781283369
  C        -0.5329921166       10.2158904522        4.8187603808
  C         4.2068387567       14.3408088307        3.5800750414
  C         1.4538051651       12.8656625368       10.6298863523
  H         2.0529082795       14.5818886518        9.5487042015
  C         1.0001440728       11.1161768697       11.7716042225
  H        -1.4568640237       10.7715418303        4.8642419602
  H        -0.7575302299        9.2544950484        5.1774144987
  C        -0.0205308218       10.1347092364        3.3518015188
  C         4.3775683315       15.7199783893        3.3870127030
  C         4.5276629401       13.5108409264        2.3798473631
  C         0.9801168089       13.5624787010       11.8832434161
  C         0.6797556120       12.2255817096       12.5600975725
  S         0.7262846272        9.5917004673       12.5530287648
  H         0.8924217076        9.5075782457        3.2255333041
  H         0.3210431103       11.1807826624        3.0411453259
  C        -1.2819917783        9.8339098875        2.4563183355
  N         4.2134191003       16.7785790059        4.3108566511
  C         4.6518965356       16.2407277235        2.0677402275
  C         4.9090107517       14.0348851988        1.1579783590
  H         4.3316462397       12.4982698633        2.4435842736
  C        -0.3009413994       14.3396844390       11.7071577816
  C         2.0256357382       14.3935168354       12.6049259767
  C         0.1524405087       11.7675679020       13.8042060559
  C         0.1470064239       10.4017158855       13.9263040319
  H        -1.7564437729        9.0416230055        2.9915512393
  H        -1.9069216583       10.7248016771        2.5459529427
  C        -0.9924117891        9.4129402315        1.0474895801
  S         4.1194387132       18.1594461015        3.5001642464
  N         4.5862025774       17.6072694104        2.1128126630
  C         4.9588450527       15.5155263264        0.8887296778
  H         5.0169519879       13.3926616173        0.3281274123
  H         0.0114341779       14.8752823360       10.8221562246
  H        -0.4616226976       15.1935438357       12.4411190828
  C        -1.5483777050       13.5295979369       11.3217925277
  H         2.5419458088       15.0326854594       11.9268659856
  H         1.5696504720       15.0866848329       13.2655271459
  C         3.1808178654       13.5855186803       13.3483296508
  H        -0.0007538743       12.4399634191       14.6151135860
  C        -0.0127479024        9.6557745185       15.2225249739
  H        -1.7113598062        8.6993279030        0.6283993601
  H        -0.0417832255        8.8240738968        0.9233899945
  C        -0.8710238607       10.5612402458        0.0323551825
  C         5.1771438923       16.1535107159       -0.3581044514
  H        -1.2741464613       12.8986645048       10.4370198566
  H        -1.8621678734       12.9562186732       12.2085228291
  C        -2.7193155223       14.4621458341       10.9053858158
  H         3.4559079424       12.6670923175       12.8770336245
  H         2.8233277725       13.3987738144       14.3592368755
  C         4.4129450198       14.4879974013       13.5858087696
  C         0.0752325124        8.2380196934       15.3792717645
  C        -0.2759348482       10.4284961458       16.4725700022
  H        -1.8991669448       10.9910640747        0.0559564012
  H        -0.2864351650       11.3194240522        0.4432634034
  C        -0.4947668364       10.1244271620       -1.4363426681
  H         4.8395416876       17.1983951322       -0.3366340694
  C         5.4107635943       15.7627689863       -1.6368140269
  H        -2.2349132752       15.3107089659       10.3578606199
  H        -3.2246596508       14.9073186290       11.7632711293
  C        -3.7419175079       13.6011895183       10.1078178881
  H         4.7918099738       14.8166016557       12.6410791850
  H         4.1219186733       15.4493703677       14.1257234738
  C         5.5192586981       13.7480696894       14.2211639356
  N         0.2433366323        7.3949757228       14.3305195333
  C        -0.0465393893        7.5777142532       16.5708878142
  C        -0.4676601747        9.7779334033       17.6517431967
  H        -0.2737759569       11.5168367000       16.5740559268
  H        -0.4158696021       11.0383333904       -2.0017483046
  H        -1.3254466250        9.4633736454       -1.8810068218
  H         0.4769683834        9.6376836092       -1.4515958804
  S         5.9007414634       14.1856352240       -2.1335918169
  C         5.3734487577       16.8069955077       -2.6617913058
  H        -3.2165250340       13.2620973312        9.2355113393
  H        -3.9431935942       12.6548755312       10.5997132719
  C        -5.1175192356       14.2123329120        9.8973197339
  H         5.4279272471       12.7632923143       13.7196547493
  H         5.3377493378       13.6876234236       15.2615747932
  C         6.8526095538       14.5238717824       14.1156099747
  S         0.3550487575        5.8660656350       14.8674537500
  N         0.1290303645        6.2285429663       16.4546127519
  C        -0.3849167892        8.3062487236       17.7776449278
  H        -0.5386992590       10.4331034805       18.5777009263
  C         5.8870951590       14.8536955001       -3.7786203611
  N         5.7874036730       16.2001822666       -3.7993229470
  O         5.0858530267       17.9842996637       -2.5914207892
  H        -5.6388013065       14.0451274242       10.8168872964
  H        -5.0061798934       15.2991929826        9.8768835106
  C        -5.8039257419       13.4780524756        8.7647624316
  H         7.6113737719       13.8885441991       14.5864982098
  H         7.1989868008       14.6673055049       13.1308725049
  C         6.8031386611       15.9143544536       14.8514292969
  C        -0.5868887500        7.5118932078       18.9390938753
  S         6.5350687623       13.9985137730       -5.1566421751
  C         5.6485877973       16.9208905820       -5.0470951675
  H        -5.1722912350       13.5176967624        7.9313363286
  H        -5.8527952611       12.4138748062        8.9388048564
  C        -7.1865049410       14.0573832765        8.4310526210
  H         6.5140198648       15.9322569383       15.8770806586
  H         6.0208489362       16.4701291907       14.3295057730
  C         8.0367411364       16.6905466831       14.7529065918
  H        -0.4332011158        6.4619257519       18.8843886602
  C        -1.0170802583        7.7713550682       20.2384717825
  H         6.2780579972       16.5424956641       -5.8853394958
  H         5.9861474694       17.8931144724       -4.8803160679
  C         4.1932560713       17.0101451900       -5.5613189984
  H        -7.7027189300       13.5248249504        7.5537419150
  H        -6.9763907678       15.0949932063        8.1995901396
  C        -8.0782810927       13.7993911091        9.6535169712
  H         8.1514100723       17.0974182843       15.7052060079
  H         8.8775249233       16.1205335232       14.4799846024
  C         7.8822803169       17.8943993439       13.8178319140
  S        -1.3844549669        9.3290493288       20.8304505256
  C        -1.1642223125        6.6023433685       21.1748234649
  H         3.8147585836       16.0967171983       -5.2921296609
  H         4.0725471105       17.1697857927       -6.6661222558
  H         3.6696233825       17.9555286330       -5.1135740595
  H        -7.7185503876       14.3232706984       10.5020901568
  H        -8.9677583801       14.3329261227        9.5254194674
  H        -8.2186908827       12.7909284244        9.9487176247
  H         7.2682408334       18.6109384756       14.3219594103
  H         8.8142334134       18.3154170311       13.5489534105
  H         7.2734732067       17.6972517355       12.9462337336
  C        -1.7348485814        8.4288043237       22.3658493099
  N        -1.5335070573        7.0854490457       22.3631876347
  O        -1.0032040280        5.4337147911       20.8721906862
  S        -2.4981169041        9.1511675300       23.7322177741
  C        -1.6510499494        6.2681066310       23.5731745230
  H        -1.7342466172        5.2513504950       23.2036824557
  H        -2.5054628718        6.5143043150       24.1760252166
  C        -0.4347869061        6.4984880236       24.5009468216
  H        -0.6637009307        7.3389873618       25.2109464243
  H         0.4994811637        6.6652291635       23.9833311481
  H        -0.3261782992        5.7098736123       25.1727198772
