352
i =
  H        -3.5549162259       14.6251676347       16.5897466998
  C        -3.1967726527       13.5782907380       16.5203465358
  H        -4.0802148602       12.9355041343       16.7210770534
  C        -2.0317868584       13.3627839803       17.4179545909
  C        -2.7836367849       13.3819546222       15.0445776703
  C        -2.2760015586       14.0304888394       18.8093840859
  H        -2.0574120977       12.2843836423       17.6008032086
  H        -1.0923817063       13.6067350537       16.9747446965
  H        -2.2841330311       12.4387721902       14.9356270863
  H        -3.6812686711       13.3225905802       14.4100360768
  H        -2.2265043132       14.2198973837       14.5511489107
  C        -1.6558875145       13.1330173120       19.8696893079
  H        -3.4382248004       14.1467515202       18.8208227919
  H        -1.9518992569       15.0925210226       18.8209008441
  C        -2.1567117029       13.5348911189       21.3052636213
  H        -1.8857643423       12.0721396114       19.6159806983
  H        -0.5307861200       13.2856228147       19.8438153140
  C        -1.2077643249       12.9202002941       22.3535083633
  H        -3.1973917905       13.1528246409       21.3505943119
  H        -2.2974537704       14.6399268204       21.3764183632
  C        -0.0006027913       13.7833619790       22.6611431699
  H        -1.8087823413       12.8161432939       23.2522673613
  H        -0.8840904542       11.9083720952       22.0285837252
  C         1.1316583595       13.0370553472       23.4264568489
  H         0.3505289932       14.1764495294       21.6715724987
  H        -0.3104304596       14.6594562290       23.1172483492
  C         1.5202775086       11.6936982946       22.7436309076
  C         0.7029550261       12.4003125627       24.6572286866
  C         2.4022457691       13.8577129693       23.6318565911
  C         1.3776869886       10.5836782547       23.5528035018
  C         2.0647369386       11.3539240548       21.4902252559
  C         0.8084256487       11.0444738758       24.7531432719
  C         0.1509931300       13.0835642043       25.7157885985
  H         2.4844154089       14.6948357254       22.9594535603
  H         2.3464283641       14.3928673097       24.5675779659
  C         3.7414713571       13.0758347688       23.6373430852
  S         1.6617069797        9.1403505706       22.7570790989
  C         2.2432189480        9.9973830372       21.3641043981
  H         2.1451016974       12.0717141137       20.7847771313
  C         0.2697499305       10.4346100210       25.8453381930
  H         0.2700265830       14.1307879560       25.5677927244
  C        -0.2791178790       12.5140619350       26.8552917303
  H         3.8797414554       12.6565137807       22.6970347503
  H         3.7850056898       12.2433197466       24.2817962605
  C         4.8986816075       13.9668909219       23.9916741980
  C         2.7187335486        9.2456696994       20.1398593471
  C        -0.2661726671       11.1535916943       26.9634168661
  H         0.0182479018        9.3858757083       25.8645374337
  C        -0.6959230354       12.9358553658       28.0986945373
  H         5.5531061586       13.4876277583       24.8004018980
  H         4.5890337979       14.9450398296       24.3322937493
  C         5.7183246116       14.3195580698       22.7917359000
  C         2.6816544353        7.8858264270       19.8735012595
  C         3.1752698408       10.0502906877       18.9900059147
  C        -0.7952799545       10.4617161620       28.1514159102
  C        -0.9682544388       11.8371142836       28.8974066885
  S        -0.8347004219       14.4245831516       28.9281100039
  H         6.3116270679       15.1954571941       23.0242860871
  H         5.0827594802       14.5636842465       21.9942887136
  C         6.6058695050       13.1037708263       22.3754888368
  N         2.4555877057        6.8545970580       20.8389137197
  C         2.8535970627        7.3465268097       18.6183379251
  C         3.3679799564        9.6061753276       17.7222425755
  H         3.3969405484       11.1460259836       19.1772883699
  C         0.1640048040        9.6518547458       29.0148265329
  C        -2.1338184365        9.6306080890       27.8636832133
  C        -1.4933483824       12.2999381194       30.1151444358
  C        -1.4451731576       13.6618198885       30.3073282735
  H         7.6908127184       13.4253471641       22.3624479719
  H         6.5254860854       12.1858512809       22.9925881447
  C         6.3556901193       12.6948953871       20.9273695107
  S         2.3534660895        5.4549511122       20.0437250781
  N         2.6667769163        5.9506897644       18.5156525263
  C         3.2909557315        8.1373600081       17.5018059803
  H         3.6056147887       10.3568419840       16.9683471333
  H         0.5052176987        8.8214519321       28.4061444839
  H        -0.4369118644        9.1918488358       29.7766596084
  C         1.2884299179       10.4358536388       29.7404643213
  H        -1.8395116870        8.9626087957       27.0714985984
  H        -2.5210949293        9.0685678073       28.7037476297
  C        -3.2325937945       10.4225699950       27.3137529431
  H        -1.8243886850       11.5559806187       30.7850633566
  C        -1.7805845260       14.3847256890       31.5286122123
  H         5.4582868550       12.1214766755       20.9675295467
  H         7.1294378316       12.0230931010       20.5298992407
  C         6.3845532221       13.8694975581       20.0069991815
  C         3.5254029203        7.5510780863       16.2147369972
  H         1.5581283010       11.2613977218       29.0222695065
  H         0.8735570863       10.8793499784       30.7116717551
  C         2.4675430311        9.6351024930       30.0317080603
  H        -2.9739472067       10.8305478926       26.3950696560
  H        -3.5290222818       11.1836594485       28.0232892408
  C        -4.5032069033        9.6472784744       27.1048939798
  C        -1.7240344546       15.7981649272       31.6568112866
  C        -2.0645623535       13.6392162225       32.8064450190
  H         5.3485361729       14.0058467799       19.7433074923
  H         6.9324435357       14.6915042228       20.4999654596
  C         7.1115457829       13.5110421760       18.7072546312
  H         3.2886798238        6.4955712736       16.1906265661
  C         3.9064989010        8.0031941911       15.0003195419
  H         2.9553516713        9.4517045927       29.1136284252
  H         2.1842237219        8.6672801475       30.4720804063
  C         3.3336726545       10.3184284423       31.0668062515
  H        -4.1652532828        9.0036276677       26.3018507674
  H        -4.7680711322        9.0920839978       27.9998814347
  C        -5.6149124602       10.5766915839       26.7420547025
  N        -1.3948411346       16.6826990529       30.6640216672
  C        -2.0157941855       16.4475896476       32.8470004414
  C        -2.3589759907       14.3489574172       33.9993287389
  H        -2.3176636216       12.6520720348       32.7511302005
  H         7.1530670785       14.3560774867       18.0590839776
  H         8.1726718353       13.4194758915       18.8880814563
  H         6.7041258045       12.6679963486       18.1529019672
  S         4.0540261591        9.7080293394       14.5301343774
  C         4.0320903830        7.0272019576       13.8810862161
  H         3.3993693364       11.2859596020       30.5769114920
  H         2.8572080868       10.5014117642       31.9991017426
  C         4.7634396277        9.8501608947       31.1382567674
  H        -5.1344630734       11.2931440004       26.0206082297
  H        -5.9330271277       11.1888656291       27.5732225270
  C        -6.6616263883        9.8042520921       26.0324095566
  S        -1.4975284295       18.2088309283       31.1444964170
  N        -1.8445817422       17.8670610948       32.7319462605
  C        -2.3005185953       15.8055601236       34.0904536629
  H        -2.7512316028       13.7401487871       34.8601438711
  C         4.2611199841        9.1100126956       12.8696093919
  N         4.2586735805        7.7397768221       12.7511156601
  O         4.0397401470        5.7736288765       14.0323543738
  H         5.3941295162       10.4005428126       31.8790789736
  H         5.1287080786       10.1954221372       30.2398025124
  C         4.9112752290        8.3579675922       31.4519326166
  H        -6.3065411464        9.1226998509       25.2535931057
  H        -7.4011058106        9.2758027314       26.7737035693
  C        -7.5934458135       10.7030578097       25.2043728620
  C        -2.5953423200       16.5795588367       35.2750272376
  S         4.6024326727       10.0710165300       11.4564989558
  C         4.2937281966        7.0188307907       11.5396216066
  H         5.8785241601        8.2120968227       31.9013472634
  H         4.1961250877        8.1524667401       32.2463549600
  C         4.9208286662        7.4383248657       30.2765012350
  H        -6.9887082277       11.0476877691       24.3454119459
  H        -7.9853964180       11.5680778985       25.7268599971
  C        -8.7736974030        9.9220051319       24.6570608429
  H        -2.4611484675       17.6417201945       35.0957591837
  C        -2.9882038763       16.2202559421       36.5574877010
  H         4.8428661843        7.5747346803       10.7598448624
  H         4.9010585878        6.1158280710       11.4810698533
  C         2.9931048154        6.7012584350       10.9549177411
  H         5.4521114918        7.8986903196       29.4224522895
  H         3.8264956114        7.3411011184       30.0156395568
  C         5.5479831971        6.0733677148       30.3975740911
  H        -9.0140410828       10.2288264289       23.6460002903
  H        -8.5412369480        8.8568015142       24.5501069019
  C        -9.9754824975        9.9475645721       25.5912542529
  S        -3.4838596437       14.6761715741       37.1667556327
  C        -3.0440104044       17.2848062779       37.5938081617
  H         2.8303580224        5.6406570574       11.1153994692
  H         2.1844983841        7.2657501084       11.4109214732
  H         2.9507247392        6.8206083779        9.9173137901
  H         5.2677079068        5.5607454870       29.5260208589
  H         5.1431145695        5.6465258633       31.3421186844
  H         6.6389604505        6.0171038604       30.4287708758
  H        -9.7630456474        9.4692587994       26.5651609310
  H       -10.8175775788        9.3945114036       25.2066224224
  H       -10.2890870791       10.9650766255       25.8702148794
  C        -3.8091090665       15.4214066086       38.7124736208
  N        -3.6063136707       16.7810909161       38.7316011649
  O        -2.5706221120       18.4436156326       37.4319797697
  S        -4.6674006362       14.5881657155       40.0455977266
  C        -3.7659745439       17.5962777419       39.9668711004
  H        -4.0559142022       18.5937685948       39.6230571224
  H        -4.5831271253       17.3190545337       40.6096294150
  C        -2.4209110880       17.5218374334       40.7093339143
  H        -1.9285408525       18.5269945550       40.6764118170
  H        -2.4720369426       17.2508815407       41.7785102206
  H        -1.6695701997       16.8472658724       40.2522041145
  H         7.7379480804       10.9138876872        3.8672868407
  C         8.4755672609       10.1618680713        3.9533598142
  H         7.9336175777        9.2304014521        3.9935840759
  C         9.2583625103       10.4457825154        5.1986976533
  C         9.3726704914       10.0742342958        2.7186925329
  C         8.4040478031       10.6563894432        6.5470263771
  H         9.9646806845        9.6480140645        5.3719525080
  H         9.8762893222       11.3759147806        5.0793215495
  H         9.5428116165       11.1607978193        2.5255797019
  H         8.8823290280        9.6471412037        1.8467154056
  H        10.4067158403        9.8954930865        2.9280313837
  C         7.5810344140        9.4020652440        6.8723603831
  H         9.0898635119       10.8293346664        7.3123235119
  H         7.7324577841       11.5432119149        6.3247931464
  C         6.6641897300        9.6292173455        8.0140604476
  H         8.2200579184        8.5438725166        7.1138525380
  H         6.9314746234        9.1951801624        6.0323239690
  C         5.3996088143       10.4550551699        7.7144827572
  H         7.2576098207       10.0404365934        8.8403524485
  H         6.3697499770        8.6862063565        8.3013800931
  C         4.1788591851        9.6742911442        7.1539096821
  H         5.1278820844       11.1505539322        8.5012082783
  H         5.6584447892       11.0731251259        6.8636828994
  C         2.8834442422       10.5879684719        6.9771547031
  H         3.8321271674        9.0047588988        7.9066873446
  H         4.4142084455        9.2174032427        6.2406699856
  C         3.2689325874       11.9208258065        6.3084436136
  C         2.4430626908       11.3343115743        8.1919312495
  C         1.7039040089        9.8780935600        6.3052558698
  C         3.1030664044       13.0554019692        7.1456227898
  C         3.6956949604       12.3481907969        5.0364056876
  C         2.5172043153       12.6631308928        8.3562922214
  C         1.9323442400       10.7300043652        9.3437409582
  H         2.0906076591        9.6496832710        5.2866222074
  H         1.2193688067        9.0532909096        6.7721660044
  C         0.5414016893       10.8052730394        6.0689888321
  S         3.5949446515       14.5561859578        6.4565951255
  C         3.9520988140       13.7261375930        5.0172634044
  H         3.7151905936       11.6443296185        4.2823817041
  C         2.1276587456       13.3090116251        9.4766944937
  H         1.8231570267        9.6868930348        9.2311581513
  C         1.6728129339       11.2998088928       10.5743355920
  H         0.7802600824       11.8293070952        5.6260592981
  H        -0.0287990003       10.9504316896        7.0373148279
  C        -0.5264784356       10.2364700528        5.1070688785
  C         4.3606693409       14.4885056812        3.7351465112
  C         1.7152645069       12.6465510185       10.6833726791
  H         2.1631508926       14.3981477882        9.4959806837
  C         1.2493837580       10.9141899630       11.8014990074
  H        -1.4562651469       10.7684353653        5.4199677591
  H        -0.7665724497        9.2240507935        5.4185079982
  C        -0.1028500389       10.2839147518        3.6089817044
  C         4.3778651042       15.8604322233        3.5136024084
  C         4.7362042597       13.6995565282        2.5224904146
  C         1.2864280515       13.3073835691       11.9213027422
  C         0.9933037352       11.9999927216       12.6116784605
  S         1.0463873252        9.3780880498       12.5981677509
  H         0.5934905037        9.5185041508        3.4244741750
  H         0.3766616604       11.1820350980        3.3379229663
  C        -1.2163183379       10.1125880315        2.5963565415
  N         4.0647138419       16.7537569051        4.5804073817
  C         4.6961173543       16.4861997804        2.3224182462
  C         4.9432605973       14.2613621131        1.2688325558
  H         4.8238875904       12.6265665140        2.6488759360
  C        -0.0092632236       14.1310367403       11.6795452228
  C         2.3835969288       14.0984032762       12.6986988822
  C         0.4437397014       11.6036057835       13.8768752681
  C         0.5075439208       10.2562028932       14.0374188520
  H        -1.6145959820        9.1386343522        2.7208993553
  H        -1.9155915904       10.8473325898        2.8773217471
  C        -0.7378697908       10.1521174558        1.1508932103
  S         4.1820688900       18.2582977548        3.9588600053
  N         4.7220542739       17.9178852553        2.4554745462
  C         4.9447030078       15.7596419708        1.1720155238
  H         5.2069956974       13.6074090195        0.4303128471
  H         0.1450481164       14.9280793761       10.9195967005
  H        -0.2744352734       14.5864854089       12.5788995209
  C        -1.3370552700       13.3863265683       11.2565967819
  H         2.7195001470       14.9315039182       12.0264908099
  H         1.8660149546       14.6724070696       13.4969767607
  C         3.6312105656       13.3735508838       13.1620255872
  H         0.0611386928       12.3281835050       14.5603305085
  C         0.2890436607        9.5262305193       15.3545027549
  H        -0.1236256761        9.3346524636        0.8760551949
  H        -0.3570950231       11.1038981799        0.8630989395
  C        -1.8965791932        9.8594997978        0.1327308621
  C         5.1192461262       16.4835751835       -0.0399389343
  H        -1.0992444609       12.5453520073       10.6802285246
  H        -1.7752085526       13.0238271541       12.1626417285
  C        -2.2817414824       14.4347580921       10.6547480630
  H         4.1610019722       13.0686279474       12.2792133247
  H         3.4183728689       12.4824214405       13.7555690523
  C         4.5211146977       14.1817240005       14.0078723144
  C         0.3568190789        8.1334767263       15.5355270857
  C         0.0076045062       10.2378506678       16.5976607859
  H        -1.9516927626        8.7610031445        0.0856939502
  H        -2.9191462216       10.2849008024        0.4334305686
  C        -1.6505688499       10.3765000511       -1.2608781265
  H         4.9707111403       17.5760477631        0.0343496859
  C         5.4380972141       16.0938085822       -1.3244388598
  H        -1.7558148508       15.2164497225       10.0410697424
  H        -2.6452063582       15.0299779727       11.4484795203
  C        -3.4362293331       13.8454742285        9.8363554194
  H         4.7730355877       15.0538141789       13.4090705002
  H         3.9976491863       14.4896160305       14.9200201715
  C         5.7236591257       13.4220550326       14.5262084116
  N         0.6290262084        7.1631711728       14.5291634871
  C         0.0585086588        7.5206442090       16.7445306714
  C        -0.2835890012        9.6147085030       17.8225930828
  H        -0.3446401988       11.3208515716       16.5846974630
  H        -1.7947939128       11.4644187458       -1.3128508850
  H        -2.3341424778        9.8830917637       -1.8943054637
  H        -0.6042846252       10.3149803302       -1.6798212092
  S         5.6923244763       14.5093941020       -1.8864133349
  C         5.5158464342       17.1800892661       -2.3699576640
  H        -3.9168841286       14.7110748601        9.4282801787
  H        -3.1035926534       13.3614105813        8.9490083264
  C        -4.3751008532       12.9028470894       10.4901916662
  H         6.1771820319       13.0093166106       13.6433313115
  H         5.3720034754       12.6064272529       15.1691973555
  C         6.6580823054       14.3810789970       15.2430216446
  S         0.4132871682        5.6812812050       15.1023126107
  N         0.0056453278        6.1225967616       16.6496346996
  C        -0.3507252845        8.1407701143       17.9129514130
  H        -0.5466755242       10.2853860578       18.6485252711
  C         5.8030698439       15.1720682468       -3.4806574160
  N         5.6780147132       16.5649204826       -3.5416934271
  O         5.3303046299       18.3796779299       -2.2437001884
  H        -3.9693771930       11.9106055512       10.7375782323
  H        -4.6763494069       13.3187150797       11.4373078520
  C        -5.6436575327       12.5387518222        9.6686716030
  H         6.0362729804       14.9017542452       15.9619288195
  H         7.3817010457       13.8193905281       15.7943946653
  C         7.2924759219       15.4868982774       14.2662516400
  C        -0.6434477338        7.3377221168       19.0949766142
  S         6.2226731009       14.2991906449       -4.8760997913
  C         5.7651291349       17.3876639700       -4.7439683427
  H        -5.4184166577       11.9902643339        8.7208705952
  H        -6.2807804553       11.8257311630       10.2321244460
  C        -6.4871228064       13.8001429899        9.3687555917
  H         6.8365987022       15.5640089349       13.3270776185
  H         8.2665952817       15.1087659773       14.0168812114
  C         7.3583156924       16.9455710031       14.8566329746
  H        -0.4980754671        6.2863733707       18.9691988727
  C        -1.1051394242        7.7013252301       20.3544925838
  H         6.3493684423       16.9217732854       -5.5821700457
  H         6.3718627615       18.2880722846       -4.5972958991
  C         4.3046153966       17.7331302526       -5.1535276484
  H        -6.0124715856       14.2346596291        8.4240404993
  H        -6.3982921356       14.5301196512       10.2431215043
  C        -8.0049551108       13.6584628112        9.2814082805
  H         7.5407004991       17.6463217362       14.0140705224
  H         6.3742056954       17.1448711370       15.3485976676
  C         8.2828406255       17.0819527950       16.0497265169
  S        -1.6563184839        9.2224690520       20.9064560726
  C        -1.2930397612        6.6559979243       21.3517709191
  H         4.3053543361       18.3226652168       -6.0133592760
  H         3.8242171464       18.2959677246       -4.3224895923
  H         3.7011938355       16.8749309599       -5.4410348973
  H        -8.4555465026       13.0481460287       10.0600149156
  H        -8.4490285945       14.5571044801        9.1425327809
  H        -8.3058665928       13.2701487591        8.3281951213
  H         7.9216246378       16.5436744285       16.9648044303
  H         9.3203867877       16.9522399949       15.8834384314
  H         8.2744261942       18.1437887774       16.3590902078
  C        -2.2178888301        8.3938257801       22.4123482738
  N        -1.8714808868        7.1469393308       22.4502543168
  O        -0.7741500731        5.4836452669       21.1495934962
  S        -3.0249393231        9.1490076690       23.8463773309
  C        -2.0076362726        6.2277352241       23.5814950141
  H        -1.9362054780        5.2000523362       23.2593218726
  H        -2.9717836870        6.3592858991       23.9884153833
  C        -0.9723313412        6.5369352690       24.6445049074
  H        -0.2864465583        7.2664280000       24.3462692110
  H        -0.5700806499        5.6009644209       24.8833447459
  H        -1.4444057661        6.8622130725       25.5666585407
