352
i =
  H        -2.6063225822       15.8663097649       16.0516288817
  C        -2.9169313809       14.8930229967       16.3548139409
  H        -3.9586558769       14.9641729010       16.7813206992
  C        -2.0163276070       14.2241780828       17.3752913454
  C        -3.0562165141       13.9874154295       15.1285351426
  C        -2.7873015753       13.9206313041       18.6409106717
  H        -1.6864739416       13.3574078158       16.9955060044
  H        -1.2336245845       14.8605731310       17.6321073642
  H        -2.1585320415       13.9827565893       14.5722507954
  H        -3.4689771067       13.0405151174       15.4043288061
  H        -3.7821843505       14.4595620980       14.4562999399
  C        -1.8542537450       13.5582152967       19.7302717897
  H        -3.4587774416       13.0979164607       18.4126539442
  H        -3.3953161172       14.7795675917       18.9492822989
  C        -2.4435040611       13.3454519749       21.1849598264
  H        -1.3006706090       12.6900985946       19.5995204180
  H        -1.1745469890       14.3809495031       19.7474763674
  C        -1.3971237323       12.7149527052       22.1285011951
  H        -3.2857379654       12.6588299151       21.0616167703
  H        -2.8917562057       14.2201044708       21.6725616790
  C        -0.2808945494       13.7887981378       22.3391304576
  H        -1.8873171486       12.6611211211       23.1423589723
  H        -1.0952685975       11.7189117200       21.9410074861
  C         0.9972672245       13.2146538134       23.1349343758
  H         0.0911190986       14.2088871800       21.4517944507
  H        -0.7314954516       14.5991967111       22.9812169835
  C         1.3754718920       11.9043745962       22.4002267085
  C         0.6958541082       12.4600176121       24.4167614954
  C         2.2161109129       14.1589827558       23.2778642742
  C         1.1933083461       10.7581524955       23.1915244705
  C         1.8046927726       11.6036521087       21.0824320090
  C         0.7307772774       11.1156040557       24.4538593345
  C         0.2389462862       13.1044580063       25.5408077634
  H         2.3164892503       14.6533868690       22.3478834328
  H         1.9293518644       14.8232913600       24.0795803276
  C         3.5809025168       13.6060781697       23.7123321409
  S         1.7492757886        9.3290522600       22.3198133297
  C         2.1354523565       10.3014788810       20.9216928748
  H         2.0638203141       12.3959987893       20.4342752108
  C         0.3726496337       10.4950469213       25.6098602268
  H         0.1589828567       14.1627660064       25.5607689835
  C        -0.0309294432       12.4760227803       26.7240307756
  H         3.6812283884       12.7216590941       23.1140367591
  H         3.4074539874       13.2209676754       24.6944440256
  C         4.7793949386       14.4797007365       23.7208861650
  C         2.7142275532        9.7077608735       19.6881892555
  C         0.0093838719       11.1361794091       26.7883703692
  H         0.3280631321        9.3937121183       25.6458495808
  C        -0.3778295528       12.8656274773       27.9721794503
  H         5.5601711963       14.0168434391       24.2342940551
  H         4.5224740187       15.3912654559       24.3349380352
  C         5.2141207242       14.7209227827       22.3014547315
  C         2.7776813009        8.3197279486       19.4524392614
  C         3.1474970359       10.5979714294       18.5987557619
  C        -0.3856931596       10.4534459853       28.0569639613
  C        -0.6593114520       11.7523069168       28.7736478936
  S        -0.5543596232       14.3998901142       28.7018413589
  H         5.9202370218       15.5623549003       22.3754552953
  H         4.3498197212       14.9735650055       21.7125631672
  C         6.0294006921       13.6083186248       21.6433575590
  N         2.4300971261        7.3123104641       20.4172049411
  C         3.0647070770        7.7780908405       18.2097648532
  C         3.3718595592       10.0919841610       17.3753535992
  H         3.0890401991       11.6621346244       18.7342440927
  C         0.7011427472        9.6406097802       28.8191888100
  C        -1.6599982852        9.5741049923       27.9551994926
  C        -1.0147055962       12.1630688880       30.0743626987
  C        -0.9738866106       13.5435249684       30.1564160664
  H         7.0674480707       13.6443319690       21.9682148799
  H         5.6190429496       12.7159248280       21.8215214904
  C         5.8059884123       13.7439883597       20.1016398299
  S         2.2928067587        5.8522474943       19.6346483867
  N         2.7495969067        6.4201992191       18.1504814348
  C         3.3609653091        8.6314980570       17.1051020956
  H         3.5879893730       10.8260923835       16.6289955458
  H         0.7623552796        8.6803420977       28.2899625564
  H         0.2823781371        9.4619992679       29.8433011647
  C         1.9735738113       10.3670816969       28.8095175110
  H        -1.5965830059        8.8336982783       27.2339532489
  H        -1.8204323035        9.0447723164       28.9522807981
  C        -2.9674175458       10.3115898907       27.5863832037
  H        -1.2116566765       11.4984414414       30.9295909455
  C        -1.2087169274       14.3220934803       31.3993238056
  H         5.3576632624       14.7302286766       19.9217902988
  H         4.9808451939       13.1374684036       19.7082009886
  C         7.0894360075       13.6748897287       19.2851122249
  C         3.4905036694        8.0329144928       15.8907065712
  H         2.2673899946       10.5647735664       27.7642471092
  H         1.8693481938       11.2939501386       29.2395686141
  C         3.0329022856        9.5794586095       29.5481697915
  H        -2.7691697064       10.7598279453       26.6116370020
  H        -3.0174720580       11.0089409980       28.4113850123
  C        -4.3046663146        9.6121543525       27.4150509500
  C        -1.3035836418       15.7270062049       31.5605964850
  C        -1.3012804555       13.5949885464       32.6439370352
  H         7.6858680950       14.5558688393       19.5690948781
  H         7.6730820720       12.8442932079       19.6882209032
  C         6.7864084965       13.5869572475       17.7578289220
  H         3.3808848017        6.9595607950       15.8548978898
  C         3.8882090998        8.4624039687       14.6289269991
  H         3.1015136437        8.6166792858       29.0500746738
  H         2.6088290309        9.3371054832       30.4934265363
  C         4.3854722485       10.2747644470       29.8049505124
  H        -4.0280165706        8.6813551549       26.9465026925
  H        -4.7508317236        9.1302436791       28.3212526125
  C        -5.2850680026       10.4250288548       26.6321809030
  N        -1.0954239623       16.6158785728       30.5244362868
  C        -1.5932642233       16.3417984070       32.7500855488
  C        -1.5709123948       14.1339283872       33.8753069330
  H        -1.0438101821       12.5568815573       32.6258787217
  H         6.3785227669       14.5700831638       17.4652155874
  H         7.6530706869       13.4365405142       17.1521890389
  H         5.9355713170       12.9469735761       17.6136646991
  S         4.3096106747       10.0853021779       14.2299527889
  C         3.9890565435        7.4999235129       13.5269709319
  H         4.5678826566       11.0629338982       29.0388896027
  H         4.2828930533       10.8595682531       30.7273197070
  C         5.5409617939        9.3476646899       29.6613363784
  H        -4.7032637110       10.9706582006       25.8461660025
  H        -5.6764788343       11.1462864702       27.3588794305
  C        -6.5280820393        9.7262502287       26.0212931395
  S        -1.1969680789       18.1261929567       31.1655351535
  N        -1.5504319518       17.7234678960       32.6679431893
  C        -1.7318329553       15.5918901414       33.9604624062
  H        -1.6107245408       13.4722852634       34.7354661707
  C         4.4620070140        9.5301984979       12.5259264646
  N         4.3393046956        8.2089225673       12.4062563107
  O         3.8389482071        6.2936689086       13.6068973114
  H         6.4882334619        9.8889494281       29.7771694780
  H         5.4100442086        9.1275253537       28.6224304835
  C         5.5648076060        8.0652079190       30.5263017313
  H        -6.1654885643        9.0030167431       25.2285606407
  H        -7.1576697760        9.2091009091       26.8040145813
  C        -7.3680110639       10.6959059086       25.1826595232
  C        -2.0464446810       16.2354421411       35.1449546260
  S         4.8273256720       10.5633097193       11.1332313344
  C         4.5046779356        7.4900761700       11.1547246510
  H         6.0532107476        8.3271471734       31.4796517897
  H         4.5598940052        7.7576037026       30.8809626958
  C         6.1355779843        6.8764898857       29.8032405453
  H        -6.8980185796       11.0659852236       24.2836898962
  H        -7.5849250959       11.6331321303       25.6558767125
  C        -8.6604807669       10.0921449728       24.6787944661
  H        -1.9006359152       17.2941678161       35.1128926126
  C        -2.5040222821       15.8594998830       36.3759339236
  H         5.3753381076        7.9404837710       10.6791581034
  H         4.8651212107        6.4350966099       11.2985716022
  C         3.3287748306        7.5368852244       10.2336372127
  H         6.7951123013        7.1180644309       29.0133054004
  H         5.2959408195        6.4150084786       29.3643756373
  C         6.8133795398        5.9024791541       30.8065347147
  H        -9.0613016434       10.7013619149       23.8157165335
  H        -8.5541014707        9.0775218742       24.2496245178
  C        -9.7904841707        9.9338863811       25.6732099170
  S        -2.7086299157       14.2492694668       36.8551283587
  C        -2.7744239894       16.9450304628       37.3974505897
  H         3.6352604856        7.7626665334        9.2241597349
  H         2.9369941958        6.5076329370       10.2275944558
  H         2.5329800556        8.1050828764       10.6964764652
  H         6.0534408614        5.5879392509       31.5798614399
  H         7.5427739036        6.6066204631       31.3460805590
  H         7.4205954754        5.1180505157       30.3237610339
  H        -9.5366452268        9.3361130642       26.4784271237
  H       -10.5973268108        9.3899223521       25.2501638475
  H       -10.1364160459       10.9479892634       26.0167087854
  C        -3.3794329020       14.9743081380       38.3312202888
  N        -3.3999905821       16.3420623209       38.4038895690
  O        -2.6434320415       18.1629547467       37.2124093142
  S        -4.0255076903       14.0878908660       39.6955485853
  C        -3.8505677899       17.0936343428       39.5544937701
  H        -3.8918718698       18.1361439726       39.3032851989
  H        -4.8441452982       16.8707065228       39.9381207338
  C        -2.7601315242       17.0638115810       40.5850954482
  H        -2.1901898414       16.1311388261       40.5816992583
  H        -2.1537652662       17.8745306875       40.2235181035
  H        -3.0607403602       17.1656863410       41.6119095701
  H         7.1829542407       11.7289019581        3.1859742002
  C         7.9067773919       10.9418571368        3.3780031201
  H         7.2359053913       10.1371948266        3.4652813680
  C         8.8158193279       11.0122783091        4.6367986524
  C         8.6844645678       10.8165520247        2.1176358470
  C         8.1016519591       11.1273192613        6.0126290448
  H         9.3467656601       10.0653645886        4.6559211448
  H         9.5047048036       11.8013060713        4.4427692005
  H         9.0761810071       11.7455298472        1.7738872275
  H         8.0469133343       10.3191724574        1.3412694772
  H         9.5506303149       10.1566869668        2.3002233746
  C         7.4903732193        9.8940096775        6.6139998887
  H         8.9239043030       11.4437729876        6.6532588804
  H         7.3686234589       11.8766010486        6.0020693569
  C         6.7490881369       10.1326068482        7.8995993137
  H         8.3410388580        9.1923296519        6.6037912850
  H         6.7240259867        9.6253859617        5.9103038850
  C         5.4785636343       10.9364550266        7.6868206123
  H         7.3481995388       10.6582154139        8.6754923007
  H         6.5604616390        9.1674252060        8.3283419270
  C         4.3174178439       10.2121835426        7.0872677532
  H         5.1956594373       11.4247434613        8.6077887469
  H         5.7650151523       11.8276308200        7.0390959759
  C         3.0714808501       11.1935489319        6.8334012152
  H         4.1041415041        9.2965912015        7.6960726777
  H         4.6059731397        9.9200257782        6.0635988594
  C         3.3754844205       12.5116740359        6.0691653334
  C         2.6351056543       11.9941846686        8.0248235947
  C         1.9450536415       10.3729880752        6.0771724656
  C         3.0857088298       13.6687832687        6.8077457234
  C         3.9930564717       12.8251299741        4.8488519125
  C         2.6205486682       13.3587872858        8.1085023714
  C         2.0716698875       11.3170966833        9.1437039426
  H         2.3598252426        9.9222803491        5.1393382001
  H         1.6894473112        9.5089064391        6.6732854453
  C         0.6997662782       11.2616423664        5.6913566519
  S         3.4702845113       15.1190912988        5.9033518089
  C         4.1046471877       14.1848421703        4.6007050436
  H         4.2954744405       12.1244833218        4.1151708545
  C         2.2972403592       13.9941072682        9.3250623578
  H         1.9630580639       10.2848303925        9.1507769579
  C         1.7301202922       11.9354708019       10.3047454765
  H         1.0025269566       12.2067263681        5.3326562298
  H         0.2434647852       11.3824348965        6.7457289597
  C        -0.3420173573       10.6410099495        4.6929458218
  C         4.5587544831       14.8833253149        3.3619978684
  C         1.8479881370       13.3133535707       10.4805769502
  H         2.4230864391       15.0507157419        9.4910578858
  C         1.3102014607       11.4667386023       11.5016077467
  H        -1.1849079773       11.3834616408        4.5623255273
  H        -0.7005505131        9.7235629550        5.1198283498
  C         0.1249477276       10.4043431853        3.2545497925
  C         4.5187127784       16.2870724157        3.0322541819
  C         5.1924094896       14.0069931108        2.2984052936
  C         1.4729336941       13.8851916366       11.7751788184
  C         1.1660303864       12.5160772857       12.3850423125
  S         1.0616528570        9.8943935687       12.2373392900
  H         0.7229383768        9.4402605067        3.2828169781
  H         0.7681650288       11.2242573924        2.9677146971
  C        -1.0492664696       10.3510052637        2.3899453678
  N         4.1907610952       17.3044556625        3.9425970590
  C         4.8790351924       16.8121214037        1.8072877643
  C         5.5169381029       14.6055682250        1.1012095392
  H         5.2521687223       12.9118555415        2.3762995066
  C         0.1298111425       14.6614165383       11.6111771819
  C         2.6520010532       14.5793539765       12.4283927949
  C         0.7308116390       12.0791200532       13.6798186699
  C         0.7092340283       10.6913205993       13.7155367990
  H        -1.7150251435        9.6640253970        2.9442314976
  H        -1.5170178601       11.2732078865        2.2843075787
  C        -0.8688314154        9.6123531151        0.9800550947
  S         4.2351503050       18.6846550353        3.1427819727
  N         4.7882948751       18.1729292369        1.7526664520
  C         5.3763098747       16.0283725138        0.7698043826
  H         6.0503710061       14.0715955840        0.3572008907
  H         0.1271130960       15.5196607406       10.9845434080
  H        -0.0351893414       15.0690246642       12.6352510509
  C        -1.1712138550       13.8762181676       11.4039966607
  H         3.5028186256       14.3934785420       11.7716667440
  H         2.4387071227       15.6713322748       12.5902478200
  C         2.9715941080       14.0862467925       13.8526092978
  H         0.5980801298       12.7738035219       14.5095984811
  C         0.4810920442        9.8050389144       14.9511238846
  H        -1.7806235461        9.2201162073        0.4069132093
  H        -0.4062752659        8.6474467158        1.1627256826
  C        -0.0677079817       10.4490251069       -0.0129361270
  C         5.7190755232       16.6746019682       -0.4938032945
  H        -1.0217032228       13.1730259498       10.5778865752
  H        -1.3706841293       13.2502078089       12.2884836570
  C        -2.3840625264       14.7969620011       11.1470095144
  H         3.2335583279       12.9700137432       13.9237020139
  H         2.0614309401       14.2685182067       14.5010158699
  C         4.0443631408       14.9174939859       14.4812663924
  C         0.4454327050        8.4028861201       15.0865598757
  C         0.1569318463       10.5234221229       16.1856698566
  H         0.1903800995       11.4255314031        0.4529741105
  H         0.9432373590       10.0249292534       -0.2603562426
  C        -1.0668592305       10.6603850795       -1.1928965250
  H         5.3165429715       17.6146331879       -0.5459602297
  C         5.9088504396       16.1561544621       -1.7571374952
  H        -2.2353809823       15.4658025620       10.2192088803
  H        -2.4933475565       15.4209842360       12.0355039294
  C        -3.6246641542       13.9834200216       10.9582793519
  H         3.6835746210       15.9759282404       14.5778544923
  H         4.3100677725       14.5976521843       15.4929732002
  C         5.3243589824       14.9227824305       13.6564113328
  N         0.6632884205        7.5676352198       14.0230638037
  C         0.0240100008        7.7927060065       16.2445134272
  C        -0.1156602096        9.9218916405       17.3833598626
  H         0.0850389448       11.5737664250       16.2119043556
  H        -2.0383463325       10.9435235052       -0.8643260890
  H        -1.2833923567        9.7704876680       -1.7925012156
  H        -0.6989641871       11.4506927886       -1.9396788493
  S         6.2166276276       14.5609579596       -2.1761139757
  C         5.9649348917       17.1006183219       -2.8481118497
  H        -3.3929875173       13.0630400225       10.4618943553
  H        -3.9934209251       13.6126974833       11.9165153174
  C        -4.7846381738       14.6444121443       10.2195030819
  H         5.2225947282       15.6638397858       12.8316969162
  H         5.4365869169       13.9414251019       13.3221043799
  C         6.4615915541       15.2086057943       14.6392485945
  S         0.4235815472        6.0758085142       14.5835966644
  N        -0.0819001243        6.4112930210       16.0649270804
  C        -0.1879616316        8.4643499001       17.4360713590
  H        -0.3518017251       10.5489258074       18.2389820058
  C         6.2347892000       15.1305916929       -3.8812126917
  N         6.1749092831       16.4903798385       -3.9816923269
  O         5.9498113976       18.2975673902       -2.6620378219
  H        -5.5032011247       15.1831298648       10.8905850935
  H        -4.5046580990       15.4177079917        9.5360020704
  C        -5.4755720846       13.6269452380        9.3647716138
  H         6.0000694557       15.8048735282       15.4326967825
  H         6.7725080891       14.2583528018       15.1585008955
  C         7.6103923877       15.9252067911       13.9811251617
  C        -0.4994740696        7.6543429025       18.6045523120
  S         6.7340473286       14.1722335151       -5.2494530758
  C         6.1681871750       17.2373709517       -5.2661286815
  H        -4.7963969952       13.3959704476        8.5333817963
  H        -5.7029964078       12.7334143366        9.9331880326
  C        -6.7485305482       14.1821859536        8.7979275184
  H         7.6064142481       15.7160536539       12.9370308992
  H         8.5952399773       15.4336300684       14.2320675755
  C         7.5225426831       17.4464800156       14.1287325307
  H        -0.0392280004        6.6289323832       18.6012485628
  C        -1.0822284799        7.9757977940       19.7509665940
  H         6.8301639362       16.7745395116       -6.1095498519
  H         6.5467678298       18.2110022134       -5.1316253541
  C         4.7859370625       17.4146467898       -5.7283965066
  H        -7.1457959629       13.6425306676        7.9534020098
  H        -6.6400126335       15.1260123914        8.2969034695
  C        -7.9407077417       14.2880692744        9.7136383678
  H         8.0909875887       17.7567930463       13.2353873341
  H         6.5404684603       17.8549741698       13.8624401737
  C         8.1253695832       18.0090776067       15.4095041199
  S        -1.5219998015        9.5761822675       20.2699918016
  C        -1.3695518785        6.8920464004       20.6555180360
  H         4.1218532025       17.3045729250       -4.9290475500
  H         4.5176438186       16.6989732084       -6.4693735924
  H         4.6800035471       18.4087149100       -6.1167402628
  H        -8.2032018630       13.2966037318        9.9731162542
  H        -7.5759198561       14.8537400866       10.5933814468
  H        -8.7704221170       14.7567372243        9.2215244893
  H         7.3919788566       18.4189391467       16.0144451757
  H         8.5630331643       17.1277672639       15.9995074217
  H         8.8313784180       18.8160361012       15.2407912439
  C        -1.9731253873        8.7050000166       21.7453835462
  N        -1.9705187785        7.3688239497       21.7358483980
  O        -1.1321242828        5.6637952377       20.3894664560
  S        -2.6227525940        9.4481797055       23.2174803725
  C        -2.2076224908        6.5529337693       22.9415967874
  H        -2.5507915182        5.5771843302       22.6748248079
  H        -2.9918172951        6.8272364448       23.6385292878
  C        -0.8807384779        6.4505446801       23.7453475448
  H        -0.9806926309        5.7520061360       24.5271630392
  H        -0.4861834131        7.3602241282       24.1582520175
  H        -0.1508589868        5.9222788815       23.1297639194
