352
i =
  H        -4.0763904343       14.3137290782       16.4653741232
  C        -3.6151835422       13.3210123382       16.6053936562
  H        -4.3342228076       12.6051424055       16.9921555342
  C        -2.4496549414       13.4300463072       17.5960714253
  C        -3.0931584478       12.8362404648       15.2706797118
  C        -2.9636022617       13.4904236984       19.0955261599
  H        -1.8404018063       12.4765720618       17.4947805774
  H        -1.8014712891       14.2878729572       17.3269810359
  H        -3.8946161218       12.9929279738       14.6059509517
  H        -2.3474591829       13.4316970254       14.7350564420
  H        -2.8787571902       11.7558175292       15.2904617674
  C        -1.7705508841       13.5273471111       20.0589555153
  H        -3.3521312278       12.5040622689       19.3485909109
  H        -3.6868133818       14.2567059094       19.2731603686
  C        -2.2770281491       13.7460679190       21.4729745646
  H        -1.2919322596       12.5822634483       19.9455078245
  H        -1.0317023441       14.2291948080       19.6602373013
  C        -1.3642619629       13.0053359838       22.4576721055
  H        -3.3039306117       13.4556474751       21.6799491751
  H        -2.3253615843       14.8122894205       21.5977009426
  C        -0.1698553912       13.8467642127       22.8346964794
  H        -1.9663898302       12.7559394726       23.3827575004
  H        -1.0211906347       12.0325079239       22.1470791473
  C         1.0430959874       13.1156795735       23.4256146423
  H         0.0955394822       14.5184920975       22.0307187738
  H        -0.4207314766       14.6218319875       23.5088414288
  C         1.3681632768       11.8021529041       22.7180685082
  C         0.6969263778       12.3211708215       24.6907894430
  C         2.3002185237       14.0136770975       23.6071643083
  C         1.1366002790       10.6442869384       23.4912714035
  C         1.8398170824       11.3476829868       21.4857019876
  C         0.7020443169       10.9461151747       24.7888330229
  C         0.1346089204       12.8963856955       25.8544216912
  H         2.4663734780       14.7894457305       22.8588200123
  H         2.2477073007       14.5615434817       24.5448963137
  C         3.5478335550       13.2976311260       24.0126078670
  S         1.5100164408        9.1741741237       22.7545002619
  C         1.8435550727       10.0074693821       21.2980118388
  H         2.2479968229       12.0748814710       20.6989316501
  C         0.2918168213       10.2607033729       25.9156934912
  H         0.1337657654       13.9592569966       25.9894564567
  C        -0.3108348366       12.2356640753       26.9455952853
  H         3.8271508636       12.6924973763       23.2006180638
  H         3.4470637700       12.6414978852       24.9091203144
  C         4.6632402869       14.2743054565       24.3743267074
  C         2.3887823165        9.2805591543       20.0753935820
  C        -0.2092208118       10.8763383475       27.0592472616
  H         0.2539098276        9.2187111819       25.8311750386
  C        -0.7627621986       12.6049831075       28.1494922022
  H         5.4905773753       13.7137528800       24.9144097941
  H         4.2888926567       15.0742816207       25.0368941922
  C         5.3002807648       14.9365752238       23.1656443413
  C         2.3760854909        7.8464352821       19.8259636406
  C         2.8242841401       10.1579665215       18.9354865411
  C        -0.6395548912       10.1835977674       28.2579374648
  C        -0.9394257730       11.5146030557       29.0057292084
  S        -0.9679450516       14.1115210769       28.9864881419
  H         5.8572684660       15.7503103215       23.6571601135
  H         4.5504570458       15.4997091933       22.4841026712
  C         6.3188249454       14.0617299022       22.3858749846
  N         1.8740342087        6.8472474444       20.6975844841
  C         2.6761851404        7.2815546814       18.6287832049
  C         3.2013748811        9.5360155592       17.7364739406
  H         2.9103228515       11.2348707483       18.9610248238
  C         0.4671463850        9.4712875050       28.9793966024
  C        -1.9241228817        9.3263735395       27.9758066609
  C        -1.4253076196       11.9438360685       30.2504289553
  C        -1.4356672366       13.3393542060       30.3780259875
  H         7.3232684946       14.5434946017       22.4398693100
  H         6.5359847313       13.1615880661       22.9695513124
  C         5.7527829263       13.7583418700       21.0260783233
  S         2.2028929082        5.4509893924       20.0679922242
  N         2.6671693410        5.9296738522       18.5546125016
  C         3.1160828556        8.0809628082       17.5129218555
  H         3.5641106962       10.1454950993       16.8234355681
  H         0.7806025106        8.5451875071       28.3756762705
  H         0.0392968669        9.0008926466       29.8352943112
  C         1.7548839896       10.2612204852       29.2951007696
  H        -1.5788621289        8.4334241595       27.4225158366
  H        -2.2871868192        8.8936954819       28.9331924239
  C        -3.0841104005       10.0903531862       27.2303477461
  H        -1.7485154159       11.2006430421       31.0004290060
  C        -1.6240315624       14.0294744211       31.7128526391
  H         5.4563187116       14.7629986635       20.7406240037
  H         4.9652773979       13.0599784950       20.8858951904
  C         6.9025456195       13.3146987739       20.1426918907
  C         3.3605507162        7.3806736342       16.2315536365
  H         2.0450770827       10.7037706287       28.3392331113
  H         1.4931096303       11.1171543868       30.0076743371
  C         3.0083375755        9.5698498118       29.9221397004
  H        -2.7704163474       10.4844212324       26.2813291393
  H        -3.2108069328       10.8249317593       27.9630460544
  C        -4.4083038486        9.4993500859       26.9636037464
  C        -1.7333317505       15.4202211860       31.8873348536
  C        -1.8454566125       13.2098755602       32.9385047409
  H         7.8869080824       13.7575989086       20.2751276933
  H         6.9974223404       12.2395159306       20.2958009971
  C         6.5657614686       13.4965825456       18.6663555204
  H         3.4122370902        6.2486164703       16.3146969405
  C         3.5753873934        7.7984205145       14.9686656539
  H         3.1640736346        8.7715486107       29.2016401523
  H         2.8891163817        9.2681851332       30.9488931979
  C         4.2171961210       10.4205886378       30.0269064961
  H        -4.1471884872        8.7131865895       26.2893038281
  H        -4.8347356263        9.1069312872       27.8909252400
  C        -5.3952991108       10.5154910067       26.4048834735
  N        -1.4522039636       16.3297247672       30.8604263805
  C        -2.0314895808       16.1038775249       33.1032467763
  C        -2.2044600605       13.8247051204       34.1380540304
  H        -1.6844161497       12.1759255173       32.8661423676
  H         5.9737907416       14.3810061621       18.5155434860
  H         7.5247572637       13.5887431032       18.1282927482
  H         5.9444118615       12.7838880529       18.3023329555
  S         3.7984119924        9.4133601841       14.4111380898
  C         3.7603265048        6.7194717698       13.8753842408
  H         4.2897966203       11.0649681181       29.1753702582
  H         4.1012779292       11.1262005206       30.8149746790
  C         5.4761702148        9.4656264399       30.1214034969
  H        -4.8393238554       11.1302836707       25.6388136882
  H        -5.7634933459       11.1610073023       27.1620052352
  C        -6.4617220581        9.7140750693       25.6464011259
  S        -1.5717459983       17.8814554674       31.5217116488
  N        -1.9215552655       17.5392601936       33.0160414142
  C        -2.2910371165       15.2973409766       34.2324870744
  H        -2.3190810609       13.2616509880       35.0912911225
  C         3.8738087656        8.7423258382       12.8278087660
  N         3.8916355846        7.3466218162       12.7625410466
  O         3.6646079455        5.5206585870       14.0640486869
  H         6.3340437657       10.1226455018       30.1819083377
  H         5.5432369121        8.7982365899       29.2517092151
  C         5.5877721971        8.8130918331       31.4879748570
  H        -6.0258445724        9.3440608293       24.7229769599
  H        -6.9003020940        8.9538140734       26.2602541196
  C        -7.5301406625       10.7062140067       25.2175094797
  C        -2.6214410902       16.0243709149       35.4478593529
  S         4.3269348432        9.6252012284       11.3008128333
  C         3.6946522658        6.5573714587       11.5202706045
  H         6.3833296928        9.3445680901       32.0068852225
  H         4.7647778134        8.7717386591       32.2325167261
  C         5.9450774435        7.2937987643       31.4141865563
  H        -7.0809896161       11.0767775196       24.2193942212
  H        -7.6115878682       11.4927746815       25.9454261851
  C        -8.8508071276       10.0075518261       24.8398631156
  H        -2.5706233699       17.0956580500       35.3605306696
  C        -3.1944830902       15.7553713719       36.6994715471
  H         4.1968104168        6.8754359985       10.6363067135
  H         4.2373475512        5.6170876574       11.7370231317
  C         2.1888066210        6.4725677510       11.2164424604
  H         6.3197056769        6.9277603523       32.3481234772
  H         6.7613104752        7.1846525044       30.6799343784
  C         4.8999072258        6.3246921007       30.7955621708
  H        -9.2793902801       10.4492683182       23.9584081428
  H        -8.6108723388        8.9953680959       24.4306785993
  C        -9.8911566818        9.9750977993       25.9780730553
  S        -3.4860365114       14.1822606648       37.4091407921
  C        -3.3920067922       16.9040861706       37.6056735123
  H         1.8118618526        7.2672746311       10.6057230178
  H         1.8749400135        5.5378608506       10.7387959734
  H         1.5845537946        6.5737738498       12.1471868525
  H         5.2503494780        5.8770100032       29.8838454743
  H         4.0299839663        6.8477094781       30.5754172260
  H         4.6619942593        5.5184941830       31.4914729517
  H        -9.5575433733        9.4456234303       26.8459768637
  H       -10.7401518965        9.4847775437       25.7068825873
  H       -10.2035353092       10.9189480940       26.2775180330
  C        -3.8579086131       15.1071736415       38.8230773270
  N        -3.8695714449       16.4724218772       38.7424827795
  O        -3.0751338707       18.0945030602       37.4820401051
  S        -4.5135921790       14.5273804660       40.2981827295
  C        -4.1846872173       17.3409496813       39.8810983296
  H        -4.2415465663       18.3871079681       39.6005079490
  H        -5.2159880028       17.0333507962       40.2993084479
  C        -3.0773774651       17.1873597465       40.8991139311
  H        -2.9954456227       18.0868158012       41.4496152959
  H        -3.2381840364       16.3683902376       41.5816378256
  H        -2.0953917588       16.9866480174       40.4122074572
  H         7.3036549460       11.1105450017        3.3727218022
  C         7.8791397404       10.2273279333        3.4762512044
  H         7.1807739676        9.4026830903        3.5105724164
  C         8.7106320037       10.1875688624        4.7333566904
  C         8.5785127327        9.9865059751        2.1222667593
  C         7.9563475768       10.4398605996        6.0052905425
  H         9.1410383965        9.1773063913        4.6482280230
  H         9.4256683089       10.9591291922        4.6081172971
  H         8.0822672590        9.1247130158        1.6348645313
  H         9.6519391007        9.6442449574        2.2646889756
  H         8.6813196981       10.8146785103        1.4201450657
  C         7.1228172646        9.2842407830        6.4200805115
  H         8.6636638934       10.7307050854        6.8190997219
  H         7.1909945486       11.2253634570        5.8439235885
  C         6.5098559520        9.5772907575        7.7917307173
  H         7.6064430560        8.3058551551        6.5465322919
  H         6.3517996474        9.1167659150        5.6011804803
  C         5.3032732274       10.4425793692        7.7408361721
  H         7.3167123474        9.9520415743        8.4498666566
  H         6.2214086240        8.7109859927        8.3335659264
  C         3.9579087229        9.7899972438        7.2219204813
  H         5.1145293853       10.8663932242        8.7198011302
  H         5.4550614673       11.3424922688        7.1472289953
  C         2.7248293802       10.7263576134        7.0360873035
  H         3.6433819343        8.8990548797        7.7735377501
  H         4.2723971844        9.2899089239        6.2788072308
  C         3.0132814975       12.0749458203        6.3637735829
  C         2.3354797971       11.4190976494        8.2920265520
  C         1.6035459606        9.9711097563        6.3021486775
  C         2.8597953994       13.2366162589        7.1299907572
  C         3.5854466822       12.3769649113        5.1222327753
  C         2.4318929240       12.7702152620        8.3671998334
  C         1.9143480752       10.7662082437        9.4169849550
  H         2.0162274421        9.2574342950        5.5191893944
  H         1.0957028288        9.3056854332        6.9704580825
  C         0.5839310125       10.8685163733        5.5936296340
  S         3.0581586091       14.7195017696        6.3248816833
  C         3.5968895942       13.7389433901        4.9352891283
  H         3.9439737151       11.5025922277        4.5490510862
  C         1.9646774872       13.2948242766        9.5148342664
  H         1.8310096414        9.6620001803        9.3708739283
  C         1.6358134191       11.3489798066       10.6152039220
  H         0.9555692873       11.6323827109        5.0514686014
  H         0.0992060602       11.3486480560        6.3332065887
  C        -0.4624693207       10.0897768234        4.8114111911
  C         3.9581577441       14.4694513991        3.6442778806
  C         1.6166544954       12.6797927446       10.7162758234
  H         1.9448426166       14.3473095061        9.4430966821
  C         1.1361044440       10.9085977476       11.8213919363
  H        -1.3008759379       10.8138860442        4.5642119414
  H        -0.8247160391        9.1843720623        5.3174068497
  C         0.1119354769        9.7190039769        3.3885411845
  C         3.9446929140       15.9144450459        3.4382292512
  C         4.3434831453       13.6670162394        2.4847850189
  C         1.1140636693       13.3754035978       11.9460417735
  C         0.7966512812       12.0111593368       12.6290976449
  S         0.6047417450        9.4502645228       12.5532793365
  H         0.5258990919        8.7511963832        3.2784710723
  H         1.0042932670       10.3187064079        3.1796519809
  C        -0.9320810862        9.6297542787        2.3503883520
  N         3.6381501511       16.9063610606        4.4325410608
  C         4.0688137414       16.4840158579        2.1810838432
  C         4.6019800639       14.2370155587        1.2588906331
  H         4.2827745708       12.6467713643        2.7065897703
  C        -0.2138404367       14.2067107358       11.7352452885
  C         2.1260926800       14.1565937206       12.7591342140
  C         0.3275929978       11.6446987474       13.8771164636
  C         0.3750537135       10.2665779309       14.0544602382
  H        -1.1600325656        8.5430359312        2.0851709941
  H        -1.8320731899        9.9804417118        2.7948277918
  C        -0.5638737867       10.1368801795        0.9433215028
  S         3.5929373585       18.4015657031        3.6864991232
  N         4.0380881029       17.9010319916        2.2462366682
  C         4.4881499892       15.7036690918        1.0564766328
  H         4.8845627129       13.5003049227        0.4885009591
  H        -0.0012419392       14.8928091210       10.9586872524
  H        -0.5296963429       14.6444496089       12.7050249827
  C        -1.4654944234       13.4246291535       11.4773429344
  H         2.6122442320       14.7022242065       11.9994080810
  H         1.6178785723       14.8081833241       13.4692938775
  C         3.1743030151       13.3477084418       13.3498920548
  H         0.0850750768       12.4815243172       14.5354435203
  C         0.1750014836        9.5979675671       15.3542678779
  H         0.3383696320        9.5358312801        0.5971298873
  H        -0.3492716817       11.1756316779        1.0906547649
  C        -1.6731377608       10.0430202051       -0.1655375701
  C         4.7882510723       16.3768897099       -0.1622686513
  H        -1.2720760386       12.6070823855       10.8325627028
  H        -1.7821362401       13.0154172294       12.3781640934
  C        -2.6405461989       14.2441550226       10.8536189998
  H         3.6665521101       12.7369824448       12.5947969231
  H         2.9195826321       12.6026807439       14.1210732482
  C         4.2304630756       14.2828816157       13.9988701412
  C         0.0925621683        8.1854343614       15.5075533494
  C        -0.1043673836       10.4443402226       16.5124569724
  H        -2.0902301383        9.0298749936       -0.1127731090
  H        -2.6127375806       10.5935342899        0.1575176821
  C        -1.2274805474       10.5221051707       -1.5526736391
  H         4.5073392327       17.3796281671       -0.1294297482
  C         5.3425341330       15.9999237441       -1.3497628369
  H        -2.2114873642       15.0089547153       10.1606141842
  H        -3.1084000511       14.8438540468       11.6705655391
  C        -3.5528916689       13.4010656567       10.1034662652
  H         4.5267461639       15.1007572784       13.3007951732
  H         3.8210393892       14.8020433691       14.7843215044
  C         5.5185186768       13.6711293438       14.5025317719
  N         0.2531879373        7.1901991736       14.5123468541
  C        -0.1522080898        7.6163764481       16.7309404924
  C        -0.4964641453        9.8578336985       17.6835178645
  H        -0.1183666988       11.5130369524       16.3951623093
  H        -2.0196353081       11.0108379200       -2.1740640749
  H        -0.9516962021        9.6575796138       -2.2573485397
  H        -0.3403605990       11.1691093042       -1.4669811182
  S         5.6515772931       14.3917179701       -1.9553836045
  C         5.3690702605       17.0210822829       -2.3689293802
  H        -2.8397276851       12.9369796624        9.4296475200
  H        -3.9984630234       12.6337849809       10.6658278206
  C        -4.6766596626       14.1419136726        9.3745640731
  H         5.6850515928       12.8210433385       13.8921513134
  H         5.4750594923       13.3007059109       15.4945502576
  C         6.7464341237       14.5923082795       14.2985944106
  S         0.0617668611        5.7104598017       15.2011044784
  N        -0.0002057820        6.2633281692       16.7196716249
  C        -0.5056081948        8.3389357461       17.8720650531
  H        -0.7539275292       10.4852217021       18.5210037725
  C         5.9883347809       15.1653066570       -3.4995165064
  N         5.7584091391       16.5118745416       -3.5071676418
  O         4.9950228224       18.2005483545       -2.2031773019
  H        -5.0846158413       14.9417456587       10.0611734026
  H        -4.2319685351       14.6667390972        8.5377747009
  C        -5.7883245409       13.1297133457        8.9159076855
  H         7.6816871689       14.0398613995       14.5682910994
  H         6.7835657736       14.8568125651       13.2559044727
  C         6.6998642040       15.7946607658       15.1762254017
  C        -0.7451193281        7.7108059277       19.1178284253
  S         6.3352285657       14.3026114511       -5.0284351413
  C         5.7569149284       17.4007348772       -4.7271223984
  H        -5.5822032027       12.6408171003        7.9511313837
  H        -5.7580517005       12.3193162741        9.6587062747
  C        -7.1696181228       13.8644372615        8.6500970035
  H         6.7596014628       15.5063116874       16.2687141608
  H         5.6906229351       16.2350894614       15.0039804103
  C         7.8668000409       16.7295845226       14.7343522211
  H        -0.3060831570        6.7336552661       19.1465326360
  C        -1.4254882860        8.0151436262       20.2563320363
  H         6.5397928763       17.0312225548       -5.4666222118
  H         6.1881450497       18.4741433416       -4.4866220058
  C         4.3935301727       17.3859599040       -5.4534601389
  H        -7.5853361253       13.4523573454        7.7532623584
  H        -7.0006004703       14.9344644691        8.4350330516
  C        -8.1134513024       13.5773022734        9.8776501143
  H         8.8330329811       16.3473645200       14.9265141160
  H         7.8821801700       16.9014339189       13.7176658131
  C         7.8716141823       17.9968409028       15.4905691448
  S        -2.0778173603        9.5253901468       20.5732375581
  C        -1.5735543366        6.9478188045       21.2836490170
  H         4.4436437906       17.8571259857       -6.4761441936
  H         3.6324614865       17.9616602555       -4.9747378747
  H         4.1475354819       16.2949664536       -5.4924469052
  H        -7.9184256711       12.6160105715       10.3470534567
  H        -7.9194522438       14.2815733721       10.6464534778
  H        -9.1683412613       13.5263469348        9.5027225364
  H         8.5205418920       18.8128123447       15.1288572012
  H         6.8909308578       18.5003683830       15.3410239119
  H         7.8729934304       17.8184813066       16.5752398027
  C        -2.6391687528        8.7969942649       22.0723943552
  N        -2.2723736751        7.4911290700       22.2772471322
  O        -1.0533381879        5.8004589448       21.2051460722
  S        -3.1567914169        9.7666200576       23.4215343091
  C        -2.3305549397        6.7796153001       23.5219898906
  H        -2.4542136272        5.7292855111       23.4407737125
  H        -3.1986611910        6.9228669861       24.1155733190
  C        -1.0481312433        6.8752790273       24.2672716715
  H        -0.2938394176        6.1938073334       23.7495414471
  H        -1.2830364627        6.4278605367       25.2728191623
  H        -0.5476336222        7.8998688517       24.3586816674
