352
i =
  H        -3.8454518067       14.5372694588       16.9045393169
  C        -3.2994905148       13.5468753493       16.7500942106
  H        -3.9034828029       12.7374752183       17.2319204048
  C        -1.9757538057       13.6256457597       17.4696901940
  C        -3.0467344966       13.2161989566       15.3085181639
  C        -2.1306070751       14.1390579128       18.9141784547
  H        -1.6039709710       12.6131514984       17.6243854171
  H        -1.2621994638       14.2064362961       16.8709755264
  H        -2.6527930678       14.0987327680       14.8367534896
  H        -2.2295012817       12.5035950276       15.2442977842
  H        -3.9863071803       12.7232366964       14.8741479699
  C        -2.1815947752       12.9401721227       19.9140579752
  H        -2.8950213575       14.9218394923       18.9926105613
  H        -1.2595281790       14.6397520351       19.2577568714
  C        -2.6116389865       13.4648557816       21.3444713468
  H        -2.8245761653       12.1967740265       19.4819783536
  H        -1.2153972030       12.4139697824       19.9706250188
  C        -1.6193915677       13.1106882341       22.4503650692
  H        -3.5856486792       12.9338477931       21.4303716987
  H        -2.9663865425       14.4498264204       21.3110050677
  C        -0.2524258234       14.0017522051       22.4415736017
  H        -2.2365752860       13.0498899278       23.3636930667
  H        -1.3521671846       12.0797081896       22.3042365353
  C         0.8900423443       13.3363975260       23.1338281616
  H         0.0670053403       14.1385795126       21.3712215645
  H        -0.5031714217       14.9818660519       22.8806613838
  C         1.2407707132       12.0460578171       22.4863902429
  C         0.4831566593       12.7204839357       24.3827611194
  C         2.1338920375       14.2457372908       23.3577272098
  C         1.1100683662       10.9470621969       23.2941822006
  C         1.9972381997       11.6335839690       21.3629535173
  C         0.6098334026       11.3593195545       24.5258117921
  C        -0.0725101658       13.3333763584       25.5526476339
  H         2.3801753464       14.6525214596       22.4313465385
  H         1.8366756048       15.0552315743       24.1051788002
  C         3.2744001361       13.6284921478       24.0047711647
  S         1.4642115573        9.4086899312       22.6411825401
  C         2.0019887154       10.2699347958       21.2335153320
  H         2.2565090622       12.4212384072       20.6709747848
  C         0.2215171679       10.7520810936       25.6836148191
  H        -0.1326460085       14.4715613588       25.5531608235
  C        -0.3673902615       12.6766572218       26.7375185421
  H         3.2553170740       12.5683956080       24.0187203485
  H         2.9396491184       13.7993793914       25.0001874152
  C         4.6993441449       14.0862844366       23.8543572752
  C         2.4045351015        9.5512612757       20.0167841965
  C        -0.3266568804       11.3415009875       26.8269943067
  H         0.3562139681        9.7334866734       25.7173709437
  C        -0.8241106671       13.0069693125       27.9817811385
  H         5.3252723096       13.6969406109       24.6787561240
  H         4.6278751577       15.0954345193       24.1519607260
  C         5.3614201039       14.0253723052       22.4946727857
  C         2.4716773361        8.1205751895       19.8304802955
  C         2.8540122665       10.3303931666       18.8087472526
  C        -0.6425583016       10.6341660710       28.1328316281
  C        -0.9342080104       11.9680638440       28.7830790653
  S        -1.0366699807       14.5981939512       28.7206027628
  H         6.3590324607       14.4339578335       22.5553163603
  H         4.7246372759       14.6445186642       21.9116569785
  C         5.5020079838       12.6652267266       21.8157109722
  N         2.1455899224        7.2144851398       20.8456324189
  C         2.6979232847        7.5288075172       18.5916653989
  C         3.1902036400        9.7212337054       17.5927664320
  H         2.8854735572       11.3808513725       18.8303666701
  C         0.5134294334        9.7945753623       28.8177016039
  C        -1.9752743251        9.7481534444       27.9442088202
  C        -1.3264624466       12.3584082465       30.0684722415
  C        -1.4250049565       13.7295501502       30.1741316783
  H         6.4694750193       12.2381788698       22.1892589798
  H         4.6786378901       11.9979260398       21.9868106219
  C         5.7633887932       12.8248831688       20.3235379802
  S         2.1378514263        5.7381794910       20.1738114482
  N         2.5903347957        6.1137581422       18.7075482104
  C         3.0723027077        8.2035301772       17.4073415018
  H         3.1239965544       10.3661530869       16.7434305691
  H         0.7561281981        8.9851406186       28.1174290888
  H         0.0560644906        9.2837421848       29.6760499297
  C         1.7949531482       10.5961928314       29.2951138857
  H        -1.7007705967        9.0112118922       27.2361347893
  H        -2.1931258645        9.1544400748       28.8403255516
  C        -3.3199196576       10.5039410989       27.5659850832
  H        -1.4414840607       11.6223773889       30.7960040596
  C        -1.7103083106       14.4784817318       31.4057627604
  H         5.0857828933       13.5244995315       19.9191415000
  H         5.4143275747       11.8664760469       19.8671817006
  C         7.1606682330       13.0967850580       19.9166592334
  C         3.3597894883        7.4223196724       16.2149875312
  H         2.2729800220       11.1087292126       28.4508764697
  H         1.4521135648       11.4484815759       29.8853193897
  C         2.7294678958        9.6573135464       29.9806598046
  H        -3.0726621185       10.9765762489       26.6271535826
  H        -3.6416495103       11.2252063318       28.3062311625
  C        -4.4721918972        9.6317889934       27.3396864550
  C        -1.7097801321       15.9301371314       31.5818379153
  C        -1.9200901882       13.6922887695       32.6560217752
  H         7.4988214407       13.9518225297       20.5001304364
  H         7.7539692066       12.2436710398       20.1068776747
  C         7.2962954624       13.3646206563       18.3784638082
  H         3.2768211850        6.3079155294       16.2806181465
  C         3.7177046212        7.8199191013       14.9266266181
  H         3.0675710481        8.9440817790       29.2986162038
  H         2.2003129685        9.2424241538       30.8504644021
  C         3.8947972975       10.2946290910       30.4971328042
  H        -4.3123125337        8.9177093741       26.5495650539
  H        -4.6728810309        9.1158154210       28.3150660970
  C        -5.6084250289       10.4068604455       26.9291287053
  N        -1.4479939080       16.8675385074       30.6410621666
  C        -1.9626112176       16.4991372544       32.7973025220
  C        -2.1324840153       14.3472456810       33.8305338628
  H        -1.7962538129       12.6330448605       32.7439065830
  H         6.5971296931       14.1185786505       18.0725207103
  H         8.3491845386       13.6404990266       18.1010083617
  H         6.9874193005       12.4460446241       17.8567047211
  S         4.1489574165        9.4138782109       14.3971782764
  C         3.7471414428        6.7626991471       13.9298592801
  H         4.0849094287       11.2407438407       29.9261138432
  H         3.6390829352       10.6657607082       31.5692170849
  C         5.1836858442        9.4799737773       30.5810616034
  H        -5.1805492468       11.1605898683       26.1756231640
  H        -6.2115809502       10.9375317082       27.6914160705
  C        -6.5678563182        9.5678270844       26.1236849529
  S        -1.2421748419       18.3022759312       31.3203729565
  N        -1.9030818074       17.8831993161       32.7725960478
  C        -2.1809947154       15.7795597681       34.0108670401
  H        -2.2803726591       13.6630935082       34.6199887528
  C         4.4232175237        8.6515881920       12.8608549165
  N         4.2515153589        7.3002360051       12.8402153751
  O         3.6298680768        5.5775997867       14.1313027837
  H         6.0534224441        9.9775683591       30.9488073665
  H         5.4350172345        9.3176052214       29.5286294434
  C         4.8738042805        8.0262735366       31.0177418421
  H        -6.0568669624        8.9896024288       25.3631663705
  H        -7.2533680915        9.0878858929       26.8033875218
  C        -7.3635185708       10.6246594327       25.3173541512
  C        -2.4127141329       16.5682211811       35.2032862330
  S         4.7052599387        9.4867049003       11.3262203561
  C         4.2637006627        6.4608560157       11.5828870799
  H         4.1032964774        8.1142136806       31.7353216150
  H         4.5432700471        7.3934886288       30.2096474539
  C         6.1837800536        7.3849603271       31.4864800137
  H        -6.7503511899       10.6767308783       24.3440046813
  H        -7.4669338639       11.5585710275       25.8356368870
  C        -8.7380768093        9.9988417363       24.8638789481
  H        -2.2230809241       17.5842814235       35.0559580120
  C        -2.9296978809       16.2180039866       36.3869249652
  H         5.0412111699        6.7840884405       10.9186320783
  H         4.5613799430        5.4664691824       11.6672336895
  C         2.8847270311        6.4829465534       10.8876724528
  H         6.0614701222        6.6780296699       32.3448086659
  H         6.7232608407        8.2378491346       31.9882837373
  C         6.8940657571        6.5653201915       30.3964285347
  H        -9.1872638390       10.5622217946       24.0641738506
  H        -8.4209819140        8.9831681136       24.5228925301
  C        -9.6710982074        9.8469246638       26.0790721070
  S        -3.4625848531       14.6891084782       36.9596725216
  C        -3.0513466515       17.3380028054       37.3941812447
  H         2.9304982367        6.0878937238        9.8661402411
  H         2.1414506560        5.8487687955       11.3428410097
  H         2.4083731821        7.4650388179       10.7196829425
  H         7.7534170906        6.0215907454       30.7570934299
  H         7.3292081144        7.2529240083       29.7392840518
  H         6.3015627739        5.9053381703       29.8191297242
  H        -9.4309206737        8.9265164970       26.6528522635
  H       -10.6978705099        9.6807709613       25.7843117583
  H        -9.5919947486       10.6887367158       26.8021691831
  C        -3.8292203151       15.4465449496       38.4577683356
  N        -3.6665182289       16.7777494464       38.4702343070
  O        -2.7890304611       18.5460396235       37.2757012103
  S        -4.3881763934       14.6842668579       39.9822769850
  C        -3.6932167782       17.5764662032       39.6669503862
  H        -3.9445984971       18.6272081394       39.3463486877
  H        -4.5406019426       17.3415185728       40.2919434549
  C        -2.3641651850       17.5916665512       40.4394875414
  H        -1.4077152694       17.6053944513       39.9144325528
  H        -2.3006313977       18.4775902937       41.1109537465
  H        -2.4234525782       16.7476863390       41.2120073297
  H         7.1427459725       10.0475920512        3.1574566227
  C         8.1715307762        9.8446820520        3.2974820175
  H         8.2205988952        8.9190225002        3.7673153583
  C         8.6878548300       10.7728170871        4.3838684626
  C         8.9906034648        9.8739802076        1.9641836635
  C         7.8474335155       10.8452905389        5.6555594526
  H         9.6992401899       10.5518774964        4.6792502519
  H         8.7468022719       11.7505415406        3.9799693755
  H         8.4292612776        9.7289577902        1.0800428107
  H         9.8028802214        9.1053892726        2.0598374984
  H         9.5304016236       10.8021457273        1.9267448300
  C         7.4725906689        9.4710516677        6.2367227193
  H         8.3800125758       11.4646380720        6.3674273628
  H         6.9405359209       11.3023905430        5.4031561626
  C         6.7408108420        9.4625121047        7.5003986479
  H         8.3735940314        8.8735236021        6.3960829461
  H         6.8539690279        9.0412508935        5.4122368680
  C         5.5433687281       10.4800352187        7.6623316340
  H         7.4958774860        9.7978318478        8.2301428541
  H         6.4931053035        8.4291487609        7.8324150974
  C         4.2766955411        9.7659154597        7.1980255920
  H         5.4063904746       10.5957535348        8.6706183806
  H         5.7404923586       11.4672856138        7.2541194081
  C         3.0242466868       10.6311060999        7.1452547209
  H         4.0897707624        8.9797099073        7.8646965732
  H         4.3965048362        9.4229040209        6.1320150888
  C         3.2882980170       11.9790386229        6.4072716312
  C         2.6484064636       11.3580822891        8.3615975734
  C         1.7972015555        9.9031000690        6.4530818715
  C         3.0617895053       13.1045871036        7.1426589020
  C         3.7780260591       12.3189966342        5.0780349708
  C         2.5960477440       12.7261051272        8.3877808465
  C         2.2208086422       10.8217016076        9.5264119829
  H         2.0586006690        9.4760076427        5.4906980026
  H         1.5300057462        9.1196041956        7.0746699561
  C         0.5053515736       10.6904173853        6.2497255002
  S         3.3908125800       14.5796259641        6.2665551360
  C         3.8693202700       13.7025437423        4.8895286363
  H         4.0970689129       11.5597740142        4.3888171130
  C         2.0593850159       13.3278647827        9.4691511148
  H         2.0318039131        9.7448255713        9.6319746529
  C         1.6864211628       11.4572288300       10.6281983279
  H         0.8810058699       11.6762008236        6.0401021088
  H        -0.1565956433       10.7682876977        7.1130620163
  C        -0.3780354441       10.1726047569        5.1462368472
  C         4.5005165810       14.3354604117        3.6181604926
  C         1.6587088362       12.8042066885       10.7202970248
  H         1.9028694518       14.3816911071        9.2885345355
  C         1.1873848618       10.9998622267       11.8198824248
  H        -1.3043329790       10.7758373213        5.1814665077
  H        -0.5453131060        9.1276581887        5.1838548909
  C         0.2964375276       10.3562495988        3.7562382229
  C         4.4731103240       15.6999630993        3.3030634408
  C         4.8835063451       13.4156046956        2.5081522083
  C         1.0950181800       13.4910155266       11.8951959328
  C         0.8575564970       12.0978327140       12.6005830210
  S         1.0173274084        9.4512831865       12.6586400263
  H         1.1858313852        9.7070940575        3.6588315543
  H         0.6435387742       11.4279832497        3.7050946556
  C        -0.6670640788       10.0037591356        2.6700010448
  N         4.1663923320       16.7044936382        4.1704665223
  C         4.8487931583       16.1285291479        2.0487443245
  C         5.1368854827       13.8835044784        1.2432989104
  H         4.7810500649       12.3723507674        2.7421543594
  C        -0.2768999096       14.3190442470       11.7808751126
  C         2.1290282987       14.3366938568       12.6273287506
  C         0.3898376186       11.6940354058       13.8615477164
  C         0.4385225471       10.3270814306       14.0436380421
  H        -1.3646741156        9.3028953020        3.0122048382
  H        -1.1660504851       10.9091086550        2.4587590445
  C         0.0220170805        9.5887200701        1.3477200657
  S         4.4545935340       18.0929929603        3.4516236833
  N         4.8683683663       17.5111129487        2.0511737608
  C         5.1157448933       15.3076369850        0.9286037368
  H         5.4063021487       13.1580533325        0.4830903428
  H         0.0045914719       15.0223861673       11.0394340431
  H        -0.4770775040       14.7545349653       12.7609970111
  C        -1.5008819088       13.5865993120       11.2565887717
  H         2.2846438804       15.1940375999       12.0386076896
  H         1.5505153526       14.5438072207       13.5262619830
  C         3.3789761576       13.5746600391       13.1265600501
  H        -0.0164467522       12.4520953633       14.5747806322
  C         0.1540014999        9.5648677272       15.3130444008
  H         0.4342935954        8.5436629134        1.4814346042
  H         0.8227126969       10.2932986847        1.1969374238
  C        -1.0281376923        9.5073814505        0.2572701271
  C         5.4133950435       15.8938449775       -0.3110138619
  H        -1.2402383431       12.8453965814       10.4935118154
  H        -1.8998719634       13.0192977467       12.0638622795
  C        -2.5393479357       14.6098449074       10.7293343635
  H         4.1529279700       13.4955750880       12.3823654436
  H         3.1797296999       12.5608162201       13.4761353185
  C         3.9933996204       14.3418288247       14.3390991261
  C         0.1625160906        8.1298358019       15.4686369752
  C        -0.1989605252       10.3835462992       16.5300111131
  H        -1.7313254226        8.7382464224        0.4906178179
  H        -1.7781018670       10.3199579846        0.4097617078
  C        -0.5716753721        9.5439221591       -1.1498704400
  H         5.2552110963       16.9446332146       -0.3188874545
  C         5.5905818496       15.4328312737       -1.6124923855
  H        -2.0797002492       15.3341438199       10.0814191756
  H        -2.8986962404       15.1022737847       11.5899724197
  C        -3.7119592531       13.9453028609        9.9536936491
  H         4.2617160258       15.3623094854       14.0201826744
  H         3.2001362951       14.5108263928       15.0530562582
  C         5.2797615172       13.6934963294       14.9416050294
  N         0.5868192489        7.2220964395       14.5263597423
  C        -0.1592211873        7.5409676249       16.6702348452
  C        -0.5065762435        9.6850295722       17.6727318391
  H        -0.2619724111       11.4720294925       16.5829853049
  H        -1.3225554396        8.9795559901       -1.7499167801
  H         0.3276371064        9.0135370190       -1.4981113309
  H        -0.5077515972       10.6170242191       -1.4666847180
  S         5.7879122506       13.7912338894       -2.1611719638
  C         5.7253826707       16.4790468194       -2.6994518314
  H        -3.9822284203       14.6501725532        9.1441821496
  H        -3.3097297516       13.1052674194        9.4239622008
  C        -4.9240481577       13.6615834109       10.8962543894
  H         5.1872322996       12.5486054006       15.0617889825
  H         5.5030003434       14.2008793000       15.8860747036
  C         6.5740829865       13.7837922603       14.0578506990
  S         0.3174683097        5.7434643965       15.1078716415
  N        -0.0961350378        6.1611291531       16.6064371526
  C        -0.5429180463        8.2006449827       17.8449378341
  H        -0.6974435315       10.2743266883       18.5126743698
  C         6.1046106331       14.4484717633       -3.7559408165
  N         5.9052515843       15.7846774198       -3.8864649746
  O         5.6466703221       17.6969888046       -2.5219364263
  H        -4.5695120870       13.1138356741       11.7774946748
  H        -5.3449938914       14.6389879452       11.2135811462
  C        -5.7942895359       12.8781137299        9.9493076110
  H         7.4307972353       13.5378356887       14.6968551296
  H         6.5486216830       13.1514205875       13.2486287252
  C         6.9918893094       15.2036205439       13.5563244681
  C        -0.9074932237        7.4651884473       18.9936582273
  S         6.3520042141       13.5927700171       -5.2620272190
  C         5.8547728664       16.6211464209       -5.0842785806
  H        -5.2902963236       12.1164646663        9.3024295825
  H        -6.3325912622       12.2525842106       10.6719574811
  C        -6.7309516661       13.6804921396        9.0351040374
  H         6.2645809989       15.4927385711       12.7998746938
  H         7.9727029338       15.1212488814       13.0943203412
  C         6.9878534674       16.1687029372       14.8291114609
  H        -0.8254594851        6.3536099730       18.9101629858
  C        -1.3384277132        7.7396412885       20.2527441578
  H         6.5519543414       16.3155852419       -5.8524127717
  H         6.2697907839       17.5876031016       -4.8701290953
  C         4.4388088823       16.8504090348       -5.6450195605
  H        -7.1525999087       13.1492892009        8.2070885658
  H        -6.1628022872       14.5247568907        8.5948959764
  C        -7.9254577528       14.1507644537        9.7699888898
  H         5.9682220052       16.4407950241       15.1594481968
  H         7.4285109014       15.5616747778       15.6544645507
  C         7.6583040863       17.5039253964       14.4939646237
  S        -1.8667974230        9.3488910154       20.7444739796
  C        -1.5146587373        6.6247169566       21.2361573126
  H         3.7173911767       16.2718379624       -4.9806973064
  H         4.3620144036       16.3918946137       -6.6740099453
  H         4.1647910700       17.8761389911       -5.6748425488
  H        -8.2013863210       13.4848797919       10.5488593266
  H        -7.7351286452       15.1104049810       10.3132383864
  H        -8.7638758674       14.3870183829        9.1422554943
  H         6.9519156317       18.2124694306       14.8303018661
  H         8.5692385649       17.5721469226       15.0354263912
  H         7.8898780398       17.6703803115       13.4496245368
  C        -2.0761379915        8.5512586764       22.3292738439
  N        -2.0190772662        7.2041308818       22.3484486049
  O        -1.3580402905        5.4520290220       21.1137209177
  S        -2.6862195442        9.4482938668       23.6804804770
  C        -2.2507539429        6.5273510990       23.6306842790
  H        -2.4985150119        5.5579358456       23.2310281088
  H        -3.0341195162        6.9008576114       24.2632783908
  C        -1.0061336919        6.4719020753       24.4513789743
  H        -0.1480229237        6.3525537814       23.8379506622
  H        -1.0316163757        5.6483188347       25.1357460368
  H        -0.9293661336        7.3822643111       25.0855077360
