352
i =
  H        -3.4776562369       14.5170815322       16.0811124039
  C        -2.6832941761       13.8115951372       16.0431429326
  H        -3.2231097124       12.9003205411       16.0357167158
  C        -1.9570901215       14.1140578278       17.2989640579
  C        -1.7829130568       13.8232996742       14.8438773772
  C        -2.8185769270       13.8728512587       18.5118827706
  H        -1.1686195910       13.3890170421       17.3943366585
  H        -1.5176117399       15.1408654273       17.3778251318
  H        -2.5014498001       13.8163786319       13.9343154225
  H        -1.0667090457       14.6731601832       14.7478941152
  H        -1.1796811681       12.8968474315       14.9534135159
  C        -1.9799867880       13.0918646154       19.6211918724
  H        -3.8230478574       13.3898302350       18.3008354319
  H        -3.1105487541       14.8326149679       18.8837284972
  C        -2.4562615155       13.3312671882       20.9942426246
  H        -2.1178600328       12.0093665697       19.3715633574
  H        -0.9421868502       13.3656700403       19.4665331059
  C        -1.4923753969       12.7456928340       22.0109946399
  H        -3.5135095693       12.9822148998       21.1690055214
  H        -2.4808921745       14.3973418070       21.0873134474
  C        -0.3293754814       13.7146025449       22.4378128463
  H        -1.9228194394       12.3540471443       22.9718140914
  H        -1.0163713511       11.9802408223       21.4240623382
  C         0.8485747869       12.9723120730       23.1692109606
  H         0.0183744462       14.3197443101       21.6303572900
  H        -0.8331897779       14.3638957843       23.1480337691
  C         1.2842999847       11.6882209095       22.5167280751
  C         0.4827301098       12.2807409000       24.4016852124
  C         2.1460818946       13.8372530791       23.3137301287
  C         0.9913931234       10.5746248420       23.2324393201
  C         1.8610392389       11.3501682362       21.2764756893
  C         0.6165742961       10.9464307996       24.5370810761
  C         0.0092437263       12.8609720325       25.5569774496
  H         2.2670893825       14.4724268545       22.4102044708
  H         1.8313245804       14.5024189389       24.1265385649
  C         3.5273661503       13.2231278112       23.7364665816
  S         1.4659135671        9.1096198815       22.5181841357
  C         2.1331059447       10.0249584052       21.1581265628
  H         2.1419105874       12.1174556860       20.6526727000
  C         0.2405045698       10.2176021938       25.6460952586
  H        -0.0634206397       13.9197423063       25.5345329013
  C        -0.3442266415       12.2001097939       26.6790581289
  H         3.7203760288       12.4476223529       23.0812404655
  H         3.4219625462       12.7824072454       24.7265637504
  C         4.7533853863       14.0824579857       23.5153500076
  C         2.6935505213        9.2167031261       19.9751461181
  C        -0.1670089021       10.8553569292       26.8622635701
  H         0.2607498902        9.1932168182       25.6062185122
  C        -0.7742566865       12.6397525181       27.9092032115
  H         5.5815863392       13.5334220409       24.0111047392
  H         4.8004279687       14.9988348984       24.0999448710
  C         4.9340490786       14.4911705532       22.0701655529
  C         2.5914868035        7.8440362838       19.7562459657
  C         3.2068786228       10.0257786325       18.7818183224
  C        -0.6134136525       10.1901322957       28.0923774909
  C        -1.0316616495       11.5223538832       28.6935754305
  S        -0.8496701806       14.1295743657       28.6421492473
  H         5.8103993671       15.1246616190       22.1019863261
  H         4.1316987842       15.1419648227       21.7039102134
  C         5.3113773100       13.3885384204       21.1792793468
  N         2.1716568488        6.8993726725       20.5834172079
  C         2.7744601788        7.2035369826       18.4988255822
  C         3.4586810036        9.3970397520       17.5730177231
  H         3.5142176249       11.0721028001       18.8423704718
  C         0.4595681485        9.4157446706       28.8137981183
  C        -1.7940701858        9.3699018391       27.7094112731
  C        -1.4119948827       11.9745942649       29.9894281296
  C        -1.3062704870       13.3717432121       30.1437901969
  H         6.1994662365       12.9302600280       21.6231429045
  H         4.4374573904       12.6321059527       21.0387962972
  C         5.7507463531       13.6463582900       19.7452230456
  S         2.1725397196        5.4393794213       19.9619665643
  N         2.6833941569        5.8482900865       18.4558063698
  C         3.2054231305        7.9439347338       17.3323713177
  H         3.9615147579       10.0211087628       16.8526174866
  H         0.8737977956        8.5995957029       28.1787742588
  H         0.0381161590        8.9884667179       29.6893163836
  C         1.5782237320       10.3067072141       29.3389990754
  H        -1.5150151467        8.6162611636       26.8890633726
  H        -2.1495077984        8.8088913098       28.5706789087
  C        -2.9305558634       10.2426323975       27.1339461970
  H        -1.6503377123       11.2430057020       30.8043922243
  C        -1.6286136738       14.1794364234       31.3426364284
  H         5.2741073299       14.4942868122       19.2885791455
  H         5.3400587278       12.8465174548       19.1163859129
  C         7.1929842938       13.7804370995       19.3925668732
  C         3.4599041454        7.2015666394       16.1047201113
  H         1.9546086030       10.9631692300       28.5572993287
  H         1.2122557389       10.9168830817       30.1549687623
  C         2.7445315168        9.4537531335       29.8983461861
  H        -2.6802767993       10.9265983618       26.3098059293
  H        -3.3927660712       10.7760779781       27.9222289320
  C        -4.0676445408        9.3952386174       26.5178430691
  C        -1.7313497346       15.6125181744       31.5085363841
  C        -1.7951573957       13.4444552219       32.6050401529
  H         7.6821911413       14.6969727939       19.7825145729
  H         7.8116304470       12.9419052018       19.6926934258
  C         7.3418278023       13.8507104609       17.8621782609
  H         3.3896014768        6.1570374014       16.1208770664
  C         3.7101467450        7.6876114047       14.8438480599
  H         2.8865837943        8.7305365598       29.1789050237
  H         2.5151974467        9.0075657024       30.8522940768
  C         4.0330149447       10.3456721100       30.0707661591
  H        -3.7187084331        8.7320491356       25.7100771247
  H        -4.2637157523        8.6651318100       27.3086659141
  C        -5.2995564133       10.2808368093       26.3787060718
  N        -1.4129523466       16.5184520251       30.5275505120
  C        -1.9796169698       16.2829993529       32.6737163700
  C        -2.1815976066       14.1042983462       33.8108682503
  H        -1.5542029986       12.3907675854       32.6057700316
  H         8.2610916705       14.2669716137       17.5084348918
  H         7.1712299595       12.8364145526       17.4825329390
  H         6.5358568218       14.5489280073       17.4900302463
  S         3.8753881614        9.3341611109       14.4294292248
  C         3.8427907457        6.7270977672       13.7462493509
  H         4.1353386512       11.2361124557       29.4358853826
  H         3.9130364858       10.7474366862       31.0661014379
  C         5.2989730815        9.4922871894       29.7622345227
  H        -5.1869305399       11.3129285544       26.7255740345
  H        -6.0221520959        9.8512936380       27.0593010036
  C        -5.7237708795       10.3802778383       24.8411919081
  S        -1.5206848335       18.0345055475       31.0287436675
  N        -1.9995002260       17.6507789715       32.4929667342
  C        -2.2194062144       15.5863547510       33.8810440312
  H        -2.2078387388       13.4775445967       34.7542411016
  C         4.1439256257        8.7470134308       12.8109594954
  N         4.1361511521        7.4531193799       12.6488427197
  O         3.8176281487        5.5060108280       13.8668931685
  H         5.9705740124       10.3500697785       29.6852650616
  H         5.3319740173        9.0385353409       28.7684099739
  C         5.6145994213        8.4614755845       30.8814166676
  H        -4.9630065512       10.9950934218       24.2776489227
  H        -5.7755609183        9.3669652145       24.3902670994
  C        -7.0460435280       11.0473327301       24.4916166207
  C        -2.5077782012       16.3299210303       35.0548003497
  S         4.6739337571        9.7997118067       11.4562843660
  C         4.1935441892        6.6755427259       11.3804633262
  H         6.7175720062        8.4498936337       30.9715979508
  H         5.1313735272        8.7680332740       31.8178098672
  C         5.0767532336        7.0109286483       30.7034414689
  H        -6.9857783720       11.2949855024       23.4114388834
  H        -7.2971125580       11.9438685355       25.1212049575
  C        -8.2053093638       10.1087519271       24.6889470475
  H        -2.3154278434       17.3660434689       34.9051318777
  C        -2.9398022763       15.9746142392       36.3514098958
  H         4.8554785538        7.1161875703       10.7073165275
  H         4.7636601967        5.7743630668       11.4739534796
  C         2.8396825348        6.4124424663       10.6971284209
  H         5.0928638743        6.8767709346       29.5731509217
  H         4.0428254417        7.0768892372       31.0902680197
  C         5.8696154726        5.9022213462       31.4283128887
  H        -9.0292882817       10.5556671850       24.0060549766
  H        -7.9946477046        9.1657635108       24.2323698161
  C        -8.6829453627        9.9845847606       26.0854889900
  S        -3.5090474219       14.4889675463       36.9586559074
  C        -3.0725088472       17.1745293142       37.2431643951
  H         2.3354405167        7.3646499079       10.6548207187
  H         3.0003409486        5.9241807744        9.6839613583
  H         2.1766951209        5.7313587896       11.1905385610
  H         6.5458572069        6.3793713580       32.0838613725
  H         6.5997967612        5.3506345669       30.7602768829
  H         5.2399684034        5.2488791774       32.1274594548
  H        -8.2360148351       10.7005781443       26.7079756807
  H        -8.5087391569        9.0019263078       26.5470906712
  H        -9.7659373353       10.1014550453       26.0122564346
  C        -4.0347932681       15.4719228729       38.3392591695
  N        -3.6864062542       16.7306603421       38.3152067812
  O        -2.7324954195       18.2667041297       36.9357964785
  S        -4.8171346647       14.7979136352       39.7806119553
  C        -3.8718114044       17.7655923630       39.3844433653
  H        -4.4556565912       18.5851578094       38.8328558129
  H        -4.4348793190       17.4317345422       40.2012534142
  C        -2.5963273179       18.3010273551       39.9784456345
  H        -2.3411094573       19.1947068169       39.3912575707
  H        -2.9137304946       18.6937141554       40.9156715483
  H        -1.7795897782       17.5059579685       39.9693810204
  H         7.1637970481       12.3438009945        3.0465879314
  C         7.6128406922       11.2914751463        2.9574396622
  H         6.8586672629       10.5135407755        2.9599248911
  C         8.6723639972       11.0040999401        4.0679504416
  C         8.2513964749       11.1366703485        1.5359910903
  C         8.0054652637       10.9782418229        5.5059468915
  H         9.0714529707       10.0085036529        3.8823144025
  H         9.4473137481       11.7425808832        3.9442804737
  H         9.2726511862       11.5748699959        1.4729398705
  H         7.4935119396       11.6371433370        0.8772383189
  H         8.1654825752       10.0894178660        1.1408753685
  C         7.3212906899        9.6637248048        5.8145583726
  H         8.8278547444       11.1366614506        6.1759039125
  H         7.3140612690       11.8725528824        5.7725524264
  C         6.7506331711        9.5808392915        7.2924241984
  H         8.0351872163        8.8368989200        5.7242470203
  H         6.5907446656        9.4804095310        5.0809246551
  C         5.4826147701       10.3998306662        7.5193113564
  H         7.4649106537       10.1006397011        7.9176852502
  H         6.7316437312        8.5165608876        7.6305421113
  C         4.2652297705        9.9439070871        6.7656736335
  H         5.3396015984       10.3128871797        8.5976932872
  H         5.6255417375       11.4212603084        7.3772364540
  C         3.0389259433       10.9331742426        6.6386987043
  H         3.9843030377        8.9784379075        7.0862102022
  H         4.5895361911        9.7983315485        5.7395764219
  C         3.5144846687       12.2796372586        6.0336703295
  C         2.7117264837       11.5916634343        7.9782412453
  C         1.7624167003       10.3160632629        5.8770724773
  C         3.3789038704       13.3787107703        6.8776221887
  C         4.0858668553       12.6356689975        4.8240981364
  C         2.9425091691       12.9173783210        8.0815088902
  C         2.3284159602       10.9768393620        9.1523816743
  H         1.8650432980        9.4166052208        5.2374712863
  H         1.1329202300        9.8943571544        6.6320070501
  C         0.9489359247       11.3198546800        5.0901658425
  S         3.8853927859       14.8188147773        6.2257280915
  C         4.3523894594       13.9708870019        4.8037372574
  H         4.2087927782       11.9011350205        4.1036587430
  C         2.6528724636       13.6029667332        9.2367740174
  H         2.1270267649        9.9185443257        9.0720139209
  C         2.0803212815       11.6543535815       10.2941654024
  H         1.5256118927       11.8664327280        4.3780826067
  H         0.4187043283       11.9943262414        5.8199030818
  C        -0.1478882900       10.6828941347        4.2220124286
  C         4.7488042567       14.7044172435        3.5621920133
  C         2.2326982473       13.0032338817       10.4328788534
  H         2.8681496868       14.6454180802        9.1431257805
  C         1.6495372983       11.2837595221       11.5499948934
  H        -0.9649855047       11.3741720192        3.9684315818
  H        -0.5973721011        9.8546493921        4.8104939997
  C         0.4220097879        9.9940465699        2.9901194413
  C         4.5940344507       16.0855089216        3.2890937682
  C         4.9100163697       13.9426909690        2.2948004644
  C         1.8508189864       13.7580686423       11.6964471023
  C         1.5114423075       12.3453128073       12.3883868626
  S         1.1784327473        9.8013863930       12.2138618503
  H         0.2251587032        8.9526545347        3.1629880262
  H         1.4854743714       10.2032381235        2.8402455182
  C        -0.1951824147       10.4712982219        1.6419418679
  N         4.2641589504       17.0114698419        4.2454106084
  C         4.8502941849       16.6840987680        2.0538470432
  C         5.2431806434       14.5336877323        1.0683799920
  H         5.0051694775       12.8774988780        2.4439994197
  C         0.5474969050       14.6145527068       11.5855610476
  C         3.0256479744       14.4400951921       12.4365703017
  C         1.1700876444       11.8859123778       13.6793350771
  C         0.9964119824       10.5331038079       13.7469729854
  H        -1.2892261752       10.3491127945        1.5905014932
  H        -0.0620084669       11.5913589256        1.4433669780
  C         0.4708318216        9.7206972564        0.4892136050
  S         4.0288072349       18.4335857677        3.4416143521
  N         4.6604462155       18.0717361264        2.0221913955
  C         5.2379880854       16.0036296277        0.8597813399
  H         5.4774788212       13.9223713681        0.2291111909
  H         0.6445448587       15.5486741496       11.0908840073
  H         0.2487898539       14.8411541127       12.6192204042
  C        -0.6152178960       13.8485596151       10.8847423402
  H         3.6360675984       14.9600862083       11.6694681124
  H         2.5814768014       15.2584463030       13.0157815683
  C         3.9716125631       13.5635263788       13.1940988047
  H         1.0422202788       12.6303279252       14.4145427137
  C         0.5262478118        9.6981599492       14.9104135437
  H         0.1105452469        8.7433438016        0.5000695475
  H         1.5448482852        9.7177926582        0.4072832694
  C        -0.0286929164       10.2821810074       -0.8350966584
  C         5.3696796679       16.6885140318       -0.3650088702
  H        -0.3123607441       13.5991142062        9.8706353130
  H        -0.8347592565       12.9408429127       11.4817550966
  C        -1.8291692903       14.7258324806       10.7898181831
  H         4.3684219852       12.7424999228       12.5295014747
  H         3.5371650431       12.9809116793       14.0379276507
  C         5.1130616023       14.3944886638       13.8854348867
  C         0.4156037218        8.2922994579       14.9472370351
  C         0.3190596500       10.4144215332       16.2202698664
  H         0.3462686979       11.2136770962       -1.0795307666
  H         0.4121768044        9.5743322258       -1.5878258375
  C        -1.5473362999       10.1254901807       -1.0460496303
  H         5.3055185728       17.7259017955       -0.3072500589
  C         5.7291842376       16.2919332745       -1.5787963217
  H        -1.6639163570       15.6543483715       10.1894290438
  H        -2.0216315535       15.0690837578       11.7896236461
  C        -3.1207501230       13.8753550495       10.4839054146
  H         4.7772321830       15.4401083167       13.8280193138
  H         5.3357245134       14.1244666135       14.9393996178
  C         6.4165215218       14.2707281603       13.1039833836
  N         0.7158457132        7.3984023455       13.8831029343
  C         0.0320301173        7.6208688558       16.1389277722
  C        -0.1694679815        9.7370931100       17.3198788412
  H         0.5213745586       11.5060165035       16.2106928799
  H        -1.7707623616        9.6131264968       -1.9916120720
  H        -2.0536091141       11.0968918643       -1.2393130180
  H        -1.9467540988        9.4184189084       -0.3160830003
  S         6.1120722728       14.7065313910       -2.1533547981
  C         5.7942609634       17.3241289330       -2.5980710796
  H        -2.9985452318       13.1640841710        9.6651379493
  H        -3.3378699661       13.1564027189       11.2132626612
  C        -4.3722837686       14.6562591152       10.0722596374
  H         6.1782868124       14.6090750186       12.1368246985
  H         6.6463963113       13.1788926994       13.0217801699
  C         7.5447207243       15.0853797369       13.7556454062
  S         0.4985652611        5.8719959085       14.4910659232
  N        -0.0240154736        6.2430535491       15.9418091151
  C        -0.2295318012        8.2788280948       17.3684487112
  H        -0.2784353876       10.2602285419       18.3223609562
  C         6.2298626527       15.5246945332       -3.7817354771
  N         6.0939073941       16.8547934602       -3.7694879263
  O         5.4294396427       18.5146070949       -2.4520595379
  H        -4.9497065277       15.2046161156       10.8627758155
  H        -4.1314079210       15.3995763791        9.2744220923
  C        -5.3745308460       13.7195897678        9.4087568798
  H         7.4534332587       15.0344802782       14.8898211211
  H         8.4743161490       14.6277843761       13.5873624453
  C         7.6686211930       16.5801656092       13.4085154935
  C        -0.5644315068        7.5173706285       18.5298453448
  S         6.5441655452       14.6789725955       -5.2373740294
  C         6.0243332719       17.6693491614       -4.9902692537
  H        -4.8668354996       13.5107856892        8.4598015268
  H        -5.4680143114       12.7258684521        9.9389281140
  C        -6.6752690601       14.2478877564        9.1047378826
  H         7.3807370018       16.8794973791       12.4003166088
  H         8.6710797732       16.7352690252       13.4362461704
  C         6.8638279959       17.4436583593       14.3777854802
  H        -0.6638424807        6.4526598899       18.3267047002
  C        -1.0124519251        7.8862986174       19.7886112097
  H         6.6942825850       17.4334066068       -5.8399395315
  H         6.2993100233       18.6844589882       -4.8404073203
  C         4.5960441962       17.6084827944       -5.6137480635
  H        -7.0810939005       13.7849474921        8.2562993608
  H        -6.6368025220       15.2852535023        8.8419130319
  C        -7.5280694479       14.0341658529       10.3724477845
  H         6.3472762345       18.2857108976       13.8789048935
  H         6.0933440345       16.9386875654       15.0487016129
  C         7.8273719946       18.2116283806       15.2529601632
  S        -1.5046936837        9.4076742858       20.3635817711
  C        -1.2233381482        6.7605851736       20.7382108510
  H         3.8648849148       18.1269448902       -5.0512383730
  H         4.2926348824       16.5749543124       -5.7052734850
  H         4.5854573235       17.9253663664       -6.6338591857
  H        -7.7166916750       12.9874676405       10.6215980008
  H        -7.0689492044       14.6073261152       11.2041742742
  H        -8.4870447319       14.4492338279       10.2900501995
  H         8.3594336300       17.6544599496       16.0279202489
  H         8.5323508235       18.6688320035       14.6033046501
  H         7.1878761192       18.9813527855       15.6415930764
  C        -1.8797079596        8.5540596357       21.9356530169
  N        -1.8159036366        7.1637556914       21.9263865286
  O        -0.9977449898        5.6354270492       20.4750013146
  S        -2.5787444802        9.3361751470       23.3070469447
  C        -2.0836469177        6.2958159018       23.0056266806
  H        -2.2775703343        5.2695018821       22.6284276103
  H        -2.9245969646        6.6365418231       23.6116151168
  C        -0.8888130310        6.1325168530       23.9622494497
  H        -0.9853199233        6.8493826802       24.7823034946
  H         0.0524536523        6.3703764629       23.4306125993
  H        -0.8522584240        5.1463241464       24.4582978242
