352
i =
  H        -4.3697041192       13.9384167810       16.7548739951
  C        -3.4703662653       13.2985278990       16.6297150442
  H        -3.7390670439       12.2598749114       16.7937356235
  C        -2.4980519510       13.6985007014       17.7088555002
  C        -2.8936531686       13.4225312641       15.1733570176
  C        -2.9656342087       13.3238769188       19.1426948522
  H        -1.5692558336       13.0861489460       17.5772238426
  H        -2.4083314991       14.7514196871       17.6335017358
  H        -3.0410697846       12.4267934604       14.6724316775
  H        -3.4573450412       14.1245502141       14.5806955751
  H        -1.8930438656       13.8235427775       15.0113632903
  C        -1.8769757848       12.8881971691       20.1231981579
  H        -3.6696641597       12.5032074578       19.3104977509
  H        -3.3805739327       14.2033468759       19.4769631529
  C        -2.3368821894       13.0135839945       21.5723048900
  H        -1.6215762696       11.8668840953       19.9043893945
  H        -0.8812987053       13.3146639152       19.8552233500
  C        -1.2628023029       12.6358400462       22.5398680211
  H        -3.0919429695       12.2001537528       21.5571999845
  H        -2.8145283216       13.9922893102       21.6963832944
  C        -0.0511215637       13.5505774121       22.6472662771
  H        -1.6612568066       12.7553533425       23.5700435909
  H        -1.0947333492       11.6113994137       22.3368345908
  C         1.1526403634       12.9387020944       23.4595259312
  H         0.2977908373       13.7288085058       21.6527196522
  H        -0.2686361873       14.4753006904       23.2080017565
  C         1.5839154497       11.6207325303       22.7437067842
  C         0.7845191647       12.1962937374       24.7223128275
  C         2.2501747069       13.9629511519       23.7158823919
  C         1.3004234347       10.4694464730       23.5294873683
  C         1.9800986023       11.2186509482       21.4495911562
  C         0.8151071959       10.8445530743       24.7453148921
  C         0.2370635495       12.7848909846       25.8764027107
  H         2.4527139418       14.5111863031       22.7672296916
  H         1.8503516088       14.6194090098       24.5148417634
  C         3.5136144785       13.2574396524       24.2008236344
  S         1.6584431028        8.9482093385       22.8129969321
  C         2.1189266022        9.8406906716       21.3356368587
  H         2.1717128199       11.9444127769       20.6828840959
  C         0.4319959785       10.1655123323       25.8841773133
  H         0.0716582805       13.8028374404       25.8485172730
  C        -0.1207852941       12.1223124431       26.9677684419
  H         3.8488690314       12.5328015996       23.4538052300
  H         3.3336206444       12.5630236906       25.0429062861
  C         4.6285645091       14.3237537459       24.5990050661
  C         2.5044559022        9.1807785655       20.0187367787
  C        -0.0699353978       10.8066525018       27.0679868289
  H         0.5366763191        9.1264040739       25.8249588190
  C        -0.5703352946       12.4492457606       28.2233377348
  H         5.4478515762       13.9961877639       25.2562380553
  H         4.0698032420       15.0042560925       25.2225539908
  C         5.2792221719       14.9647843211       23.3965013860
  C         2.4766297426        7.7943548445       19.7755173931
  C         2.8781273638       10.0412598688       18.8598996029
  C        -0.4189911590       10.0392993808       28.2710842876
  C        -0.6287062450       11.3225107434       29.0391282387
  S        -0.9187741521       13.8957894574       29.0115508971
  H         6.0475628249       15.6510873751       23.6488400202
  H         4.6500016312       15.4833092385       22.7065557356
  C         6.0607155443       13.8528333540       22.6117081054
  N         2.1377940518        6.8237400957       20.7185614786
  C         2.7563285456        7.2028098272       18.5923237789
  C         3.1011931108        9.4173248657       17.6805412691
  H         2.9584712800       11.0845775439       18.8624804541
  C         0.7602634060        9.2360987678       28.9071405248
  C        -1.7277902037        9.2145658716       28.0516765326
  C        -0.9282091621       11.6609805876       30.3837391539
  C        -1.1441178343       13.0412564824       30.4766626175
  H         7.0813868777       14.1353179271       22.6963227166
  H         5.9544496177       12.9291045435       23.0845818901
  C         5.4472947265       13.7021534583       21.2134793694
  S         2.2104809455        5.4061609001       20.0704851882
  N         2.5514022804        5.8703980284       18.5521516391
  C         3.2120684399        7.9361576888       17.4841742220
  H         3.1820338559        9.9978509912       16.7751770865
  H         1.0018829979        8.3873950169       28.2672414718
  H         0.4411465836        8.8802218754       29.8829155428
  C         1.9041640846       10.0916098360       29.4114738845
  H        -1.5545456007        8.5887659468       27.2333952405
  H        -1.9104262663        8.6450235635       28.9279725000
  C        -2.8466975976       10.0893184671       27.7028984013
  H        -0.9342096163       10.8190522922       31.0684417707
  C        -1.6023979960       13.7962956675       31.6676276225
  H         5.3565226209       14.6850149265       20.8151033269
  H         4.5060790663       13.0508718560       21.2645939145
  C         6.3005258309       12.8732192953       20.2686829098
  C         3.4087435485        7.3236664133       16.2270490490
  H         2.3471985618       10.7065663480       28.5280796451
  H         1.6424055204       10.6859087925       30.3349530266
  C         3.0957036192        9.2369357482       29.8534759795
  H        -2.4714302214       10.6162372475       26.8463863554
  H        -3.1173471731       10.7497968886       28.5539622178
  C        -4.1368152506        9.2580172478       27.2976195693
  C        -1.5898399131       15.2098550191       31.7985880024
  C        -1.7866862445       12.9958044238       32.9058502196
  H         6.6932899277       12.0499080594       20.9173280288
  H         5.6976085934       12.4511191946       19.5043801352
  C         7.6149073356       13.4557491005       19.8072899077
  H         3.2129345930        6.2626132863       16.1786692573
  C         3.7873897960        7.8918935774       15.0115617465
  H         3.6109499637        8.6078569590       29.1112132320
  H         2.6950667312        8.6793009273       30.7271052165
  C         4.1661033267       10.1277457672       30.4898621307
  H        -3.9023214151        8.3426075770       26.8140278962
  H        -4.6510917784        9.0037320448       28.2110838993
  C        -5.1706519208       10.0661332088       26.4493734221
  N        -1.2723601083       16.1384728037       30.7725561291
  C        -1.9011043558       15.8476874360       32.9801738064
  C        -1.9246093732       13.7297339907       34.1523319043
  H        -1.8173264487       11.9572230575       32.8571845115
  H         8.2358839804       13.7593244591       20.5952872649
  H         8.1850590398       12.7586331986       19.2751849163
  H         7.3883337552       14.3470245307       19.1900710903
  S         4.1950758556        9.5116050831       14.5280469417
  C         3.9147324638        6.8653999849       13.9180892403
  H         4.2626423617       11.0921129975       29.9626679484
  H         3.8052734839       10.4661840796       31.4446873839
  C         5.5872267537        9.6095978176       30.4484615170
  H        -4.6875697927       10.4857720544       25.5490836790
  H        -5.5555386619       10.9380246232       27.0635122766
  C        -6.4262850405        9.2940063681       26.0571531593
  S        -1.5161470788       17.6239501048       31.2672210804
  N        -1.9784542997       17.2428737841       32.7994515475
  C        -2.0636225820       15.2353668760       34.1857336205
  H        -2.0343976107       13.1973314070       35.0821952294
  C         4.3145184143        8.8787234475       12.9102756490
  N         4.2340176607        7.5336066627       12.8022732365
  O         3.8581011587        5.6767426518       14.0606773845
  H         6.3829953435       10.2729099459       30.8777026851
  H         5.9139766843        9.3573905632       29.4220120974
  C         5.6959048895        8.2110540036       31.1497137321
  H        -6.2627506272        8.4474513173       25.4719008351
  H        -6.8299024009        8.9816752045       27.0047685767
  C        -7.2793854783       10.1774199323       25.2715294018
  C        -2.3379390897       16.0553406954       35.3123341360
  S         4.7876413368        9.9081515262       11.5380564335
  C         4.4072561465        6.9385503983       11.5081509715
  H         6.3373001742        8.3153707468       32.0013462142
  H         4.7134789124        7.8155200222       31.5299741264
  C         6.3775273330        7.1629985885       30.2296042852
  H        -6.6901972319       10.3073441894       24.3516585904
  H        -7.1489197381       11.2087801488       25.6681075935
  C        -8.7608039753        9.7425140630       25.1869298023
  H        -2.1376245541       17.1098973172       35.1480302554
  C        -2.8514967700       15.9000308167       36.5688376768
  H         5.0917188932        7.5127715934       10.8594540375
  H         4.8907305238        5.9892241253       11.5487153210
  C         3.0504225656        6.8431685490       10.7591531920
  H         7.3399521359        7.5651688929       29.9740714741
  H         5.7103429281        7.1535360818       29.3713928665
  C         6.6321259238        5.7900051021       31.0276632725
  H        -9.2214679360        9.8338773547       24.1993107023
  H        -8.7146797844        8.6657138877       25.3231408414
  C        -9.6865050560       10.4444080515       26.2031925694
  S        -3.3984144582       14.3958105698       37.1780390247
  C        -2.9848266404       17.0486626830       37.4516793427
  H         3.2075858225        7.1027661444        9.6867576840
  H         2.7033193666        5.8191543260       10.9030766811
  H         2.2914570412        7.5579163679       11.0759095181
  H         5.6156991765        5.4471395918       31.3834266869
  H         7.2403494093        6.0432873570       31.9075424549
  H         7.0781635188        4.9912890320       30.4539559054
  H       -10.6523987064       10.6059855943       25.7310097341
  H        -9.3566381227       11.2593581544       26.8336424509
  H        -9.9060567462        9.7434630052       26.9628225020
  C        -3.8178009944       15.3631687356       38.6740827398
  N        -3.5023308336       16.6945019151       38.6200721269
  O        -2.5543987575       18.1397220964       37.1113743942
  S        -4.5830917401       14.7432200398       40.1379516987
  C        -3.4512004659       17.5354412822       39.7856971817
  H        -3.1803831042       18.5361633912       39.3937360854
  H        -4.4268907030       17.5386886688       40.2958747096
  C        -2.3082630361       17.2416905071       40.7666471912
  H        -2.0394262893       16.2076847510       40.6806441176
  H        -1.4897012802       17.9120643252       40.6121806190
  H        -2.5823167784       17.3777850867       41.8452488556
  H         7.7137283219       10.8417630178        3.1021054642
  C         8.3718972546        9.9905472300        3.4195825366
  H         7.7105065960        9.1143634183        3.5575867677
  C         9.0809046981       10.3141138018        4.7717813744
  C         9.4866209101        9.7283464383        2.3841268788
  C         8.1176959879       10.4966346181        5.8996635607
  H         9.7729253132        9.5387439926        4.9257438579
  H         9.6150949561       11.1952605692        4.6022836666
  H        10.3741661330       10.3319570034        2.4749041266
  H         9.0193364924        9.7961017722        1.4047977016
  H         9.7111461657        8.6508137996        2.4200634430
  C         7.3754854549        9.1669989487        6.2306196147
  H         8.7441553892       10.7936087974        6.8119580011
  H         7.4381202532       11.2512039291        5.8463666928
  C         6.7480316066        9.1189038561        7.6739216479
  H         8.0723217894        8.3089455439        6.2388285835
  H         6.6570562620        9.0045632342        5.5282194728
  C         5.5779901125       10.0942823503        7.8005161157
  H         7.5324773029        9.3783223720        8.4421282456
  H         6.4751079210        8.0693371349        7.8778786993
  C         4.2199654812        9.4255725189        7.5910506410
  H         5.5950065968       10.5348101015        8.8227280701
  H         5.6406417507       10.8794265074        7.0400041955
  C         2.9121093414       10.2991928521        7.3880582420
  H         4.0604788421        8.7469372300        8.4445742771
  H         4.2733464642        8.7871771405        6.7093960037
  C         3.2155220572       11.6234141255        6.6860604645
  C         2.5227797429       11.0667718628        8.5952470756
  C         1.6813886587        9.6153973610        6.6416855379
  C         2.9058968804       12.7345951988        7.4471015125
  C         3.6988202919       11.9437019805        5.4053851901
  C         2.4904526784       12.3833474516        8.7048902074
  C         2.0193735627       10.4836100605        9.7354538187
  H         2.0058048189        9.1622144203        5.7388538633
  H         1.3493113167        8.7253420730        7.2449561298
  C         0.4847455119       10.4869793167        6.4649762278
  S         3.2878603093       14.2207800455        6.6135023535
  C         3.8367029607       13.2928276936        5.2306674642
  H         3.8974944082       11.1568220193        4.6075168891
  C         2.1633680632       13.0273747975        9.8597722686
  H         2.0105299008        9.3823011226        9.6890838188
  C         1.6934089736       11.1201450089       10.9391464765
  H         0.7369416196       11.5440163537        6.3232092741
  H        -0.0708464131       10.4341473080        7.4414840134
  C        -0.4039835231        9.9579677413        5.3146062083
  C         4.2652922955       13.9822824812        4.0006476303
  C         1.7468239669       12.4616893876       11.0652740494
  H         2.1731010397       14.0830219642        9.9153345239
  C         1.3084736812       10.6907362824       12.2034759188
  H        -1.3298388588       10.5078957334        5.4330245400
  H        -0.6489622300        8.9346691294        5.5248968878
  C         0.1145235406       10.2024953841        3.9123287810
  C         4.4094113981       15.3444471368        3.7962896161
  C         4.6906658186       13.2137642168        2.8119901880
  C         1.2731400898       13.1338073336       12.3120130602
  C         0.9912362870       11.7413676092       13.0328938505
  S         1.1716144388        9.1678716675       12.9151094338
  H         1.0511777864        9.6443347440        3.7345149338
  H         0.1022180038       11.2518575649        3.6967259888
  C        -0.8926277335        9.6184016544        2.8714345919
  N         4.1752641885       16.2787260407        4.7680838649
  C         4.6631350247       15.8882673286        2.5572853284
  C         5.0632991777       13.7539884294        1.5938969719
  H         4.7519727875       12.1029973293        2.9822669049
  C         0.0156447504       13.9098058561       12.0406653150
  C         2.3384761280       13.8574173677       13.1870723866
  C         0.5009354635       11.2835429541       14.2599896575
  C         0.5598539306        9.9134659863       14.3300888235
  H        -1.1226456295        8.6412975901        3.2377175355
  H        -1.8659120599       10.2014650094        2.7864868165
  C        -0.2601958542        9.6410354629        1.5384330100
  S         4.2904247069       17.7435511578        4.1708231605
  N         4.5626643849       17.2701980546        2.6426852253
  C         4.8837538822       15.1997304317        1.3871561406
  H         5.4031300512       13.0679062854        0.8299167219
  H         0.2621502380       14.5746433488       11.2234657744
  H        -0.4408690988       14.4519162156       12.8407985647
  C        -1.1551843348       13.0340974341       11.5247218961
  H         2.6777789826       14.7967549145       12.7781141491
  H         1.8103474694       14.0245737526       14.0936352580
  C         3.4838103327       12.9753994915       13.4889290937
  H         0.0321911438       12.0270548494       14.9306023635
  C         0.2853461598        9.0961524018       15.5823964561
  H         0.5362346302        8.8652763036        1.3609408874
  H         0.2524707918       10.5781372593        1.4704296245
  C        -1.2237381473        9.5301453711        0.3308930790
  C         5.0554513435       15.8977569478        0.1502116417
  H        -0.9143048890       12.4766093720       10.6096955995
  H        -1.4238253981       12.1804670316       12.1097622995
  C        -2.3530334416       13.9023881203       11.1519660495
  H         3.7348623075       12.3629995156       12.6429739296
  H         3.1793826720       12.2734619174       14.2915588484
  C         4.6262294325       13.9122781716       13.9597306071
  C         0.2271019069        7.6464901853       15.7050628542
  C        -0.1493932179        9.8634251667       16.7847054170
  H        -1.4479062060        8.5308329173        0.1147525328
  H        -2.1195460603       10.0961820304        0.6412292481
  C        -0.6953684926       10.0805173913       -1.0328090691
  H         5.2694390942       16.9332526661        0.1757329086
  C         5.2501995424       15.4553849500       -1.1565038802
  H        -2.0672200237       14.8376488671       10.5741551668
  H        -2.7925057973       14.3356893935       12.0916828067
  C        -3.3939779449       13.1314405491       10.3442131445
  H         4.9985575399       14.5930076907       13.1539768602
  H         4.3069913396       14.5598549078       14.7799730757
  C         5.8808632267       12.9836423784       14.3044513999
  N         0.4351940665        6.7411354877       14.6785983906
  C        -0.1297255698        7.0394565670       16.8830107741
  C        -0.4875776472        9.2228307477       17.9713790034
  H        -0.2290195972       10.9415245656       16.7082268563
  H        -0.6023254355        9.2086883925       -1.6638285697
  H         0.3096731005       10.5543782361       -0.9492886754
  H        -1.3601687095       10.8409594887       -1.3960311844
  S         5.5122131674       13.7739215167       -1.6081065080
  C         5.4500284190       16.4619045093       -2.2362174066
  H        -3.0367537248       12.8305760208        9.4173937739
  H        -3.6199110462       12.2323947450       10.8403779824
  C        -4.6342602862       13.9077454249       10.0363596025
  H         6.3523581665       12.4090904074       13.5220278264
  H         5.5914954917       12.2211821420       15.0439788761
  C         6.9500927154       13.7336889508       15.0092764404
  S         0.1349368831        5.2248105924       15.2172566743
  N        -0.2020689275        5.6412073737       16.7802357482
  C        -0.5139216409        7.7495398986       18.0497121588
  H        -0.7322324567        9.8994294048       18.7834404487
  C         5.8679245009       14.4881976343       -3.2058622955
  N         5.7103986739       15.8403962008       -3.4156075561
  O         5.3694886922       17.6544557582       -2.0746632456
  H        -5.1621243116       14.3797644587       10.9410122727
  H        -4.3783185233       14.8965164291        9.5053603739
  C        -5.5422722565       12.9771216949        9.3119455026
  H         6.5138940903       14.3345804752       15.8242865843
  H         7.5920041319       12.9284875259       15.4642858619
  C         7.8297333975       14.5867435187       14.1343387718
  C        -0.7979232799        6.9860032917       19.2762372419
  S         6.2289460903       13.5308752007       -4.5825724655
  C         5.8552773340       16.5821173796       -4.6803292777
  H        -5.0008636645       12.4612079006        8.5419774204
  H        -5.8984829139       12.2890110808       10.1252968897
  C        -6.6042597142       13.6372501105        8.4871165956
  H         7.3079173741       15.0005487407       13.2910461826
  H         8.6041236348       13.9202149175       13.7368062703
  C         8.4527241804       15.7107844217       14.9600681704
  H        -0.8167382648        5.8907603182       19.0296025327
  C        -1.1301511352        7.3002724759       20.5375526736
  H         6.5381982308       16.1616291432       -5.3644536657
  H         6.3209401618       17.5171994156       -4.2550930609
  C         4.4572830830       16.7044035128       -5.3067512051
  H        -6.7264213574       13.1588101176        7.5358943164
  H        -6.1840366710       14.6260752756        8.2378966603
  C        -7.8489689029       13.7948625263        9.3688172561
  H         8.3011388021       15.6277584373       16.0297446403
  H         9.5044531638       15.7818504043       14.7665892627
  C         7.9401626819       17.0996171304       14.5821076200
  S        -1.4989630307        8.8633965696       21.1072074394
  C        -1.2720935773        6.2103679220       21.5775076449
  H         3.9996804692       17.5599920820       -4.8147925414
  H         3.8037979683       15.8066065888       -5.0850495649
  H         4.5441014287       16.8036080035       -6.4122146728
  H        -8.7370610288       14.1742939170        8.8677550736
  H        -8.1149794846       12.8810853784        9.8109646821
  H        -7.6488794415       14.4815972633       10.2075236163
  H         7.7944210619       17.1477138481       13.5129502238
  H         7.0505089158       17.1868640753       15.0313607028
  H         8.6497770076       17.8901885147       14.9940181561
  C        -1.8044196408        8.0932022418       22.6471757062
  N        -1.6494259408        6.7493671782       22.7423037040
  O        -1.1037889246        4.9877265147       21.3866431023
  S        -2.3821610269        8.8890290707       24.1412640269
  C        -1.7955679108        6.0152649890       23.9737123472
  H        -1.8936897739        4.9146400011       23.8631649867
  H        -2.7563835850        6.2460180383       24.4405337442
  C        -0.5445938473        6.3531545224       24.8563420056
  H        -0.3753331739        5.7241078941       25.6191512925
  H        -0.7360662792        7.2258703490       25.5308904358
  H         0.2503041843        6.4771496017       24.2039772765
