352
i =
  H        -3.5126939493       14.7161843139       16.5328636638
  C        -3.0096436759       13.7598114995       16.4604486006
  H        -3.7801410122       12.9839222709       16.5940163021
  C        -1.9046213054       13.4870290085       17.5252665624
  C        -2.4671382104       13.4731729415       15.0193719518
  C        -2.4676832399       13.7636585967       18.8653612776
  H        -1.5703755985       12.4195307040       17.5991119883
  H        -1.0089896421       14.1036010730       17.3747023284
  H        -1.7718509475       14.2619657038       14.6609439034
  H        -1.9987261183       12.4503039751       15.0722117089
  H        -3.3605890722       13.4406232133       14.4250226778
  C        -1.9096102109       12.6970655434       19.8827300420
  H        -3.5759641235       13.6993172864       18.9386681231
  H        -2.1561689199       14.7682208997       19.2465771212
  C        -2.2545415743       13.0280283193       21.3140057406
  H        -2.4108991465       11.7546946880       19.6829298135
  H        -0.8274504602       12.6434888408       19.7984260422
  C        -1.1684557846       12.7844600894       22.3983505968
  H        -3.1870716252       12.4501204712       21.3520075615
  H        -2.5629716510       14.0720705105       21.2939390918
  C        -0.0722241434       13.8504614776       22.4427314877
  H        -1.6110260024       12.8555111704       23.4044214495
  H        -0.7876894080       11.8070835042       22.2909761673
  C         1.2625405162       13.2689354228       23.1065814990
  H         0.2063239426       14.0900143977       21.4013762454
  H        -0.3734811994       14.7467908966       23.0126758651
  C         1.7513344128       11.9946519096       22.3868787775
  C         0.9233855520       12.5208097525       24.3005678541
  C         2.4824469465       14.2181413004       23.2139415409
  C         1.5686157985       10.8479308442       23.1386881024
  C         2.3295714226       11.6102363617       21.1097355002
  C         1.0457997310       11.1448617226       24.3946674045
  C         0.3156140205       13.0889351425       25.4462342600
  H         2.6732348420       14.4819989523       22.1888280524
  H         2.1910116728       15.1321047157       23.7763152279
  C         3.7294637716       13.5913287177       23.9175900400
  S         2.0344327041        9.3509432978       22.4182665564
  C         2.4609044251       10.2349805110       20.9330306250
  H         2.5257235933       12.3346420853       20.3762129279
  C         0.6515859805       10.5014860014       25.5479959245
  H         0.1006223778       14.1290598879       25.4890782805
  C        -0.1317198458       12.4292271000       26.5328385180
  H         4.0122537294       12.6767206121       23.4459695610
  H         3.5827094148       13.1308325988       24.9280617366
  C         4.9662839621       14.5068941878       24.0360388398
  C         2.8038619209        9.5581766846       19.6803123628
  C         0.0224322495       11.0871578847       26.6563438857
  H         0.7243583242        9.4402164630       25.5690594622
  C        -0.5519193828       12.8771031997       27.7941920007
  H         5.7491899999       14.0457921399       24.7043759989
  H         4.8983907320       15.3875176341       24.6784776112
  C         5.5844966934       14.8522186622       22.6768027734
  C         2.7054308519        8.1721200596       19.4480950774
  C         3.1943871652       10.4659490885       18.5676264928
  C        -0.4487082694       10.4281638185       27.8599582516
  C        -0.7593301738       11.7629960057       28.5734687818
  S        -0.7555615994       14.3692636862       28.5549589587
  H         6.2826899524       15.6660911775       22.7752134424
  H         4.8217950528       15.2570478132       22.0742578153
  C         6.3503272065       13.7496379317       21.9972728792
  N         2.3945986165        7.1800007799       20.3776306327
  C         2.9659464677        7.6457294103       18.1328811910
  C         3.4564284805        9.9341366722       17.3073598291
  H         3.2267071543       11.5761961351       18.6766263703
  C         0.6838650434        9.6873335181       28.5601322244
  C        -1.7302066900        9.5310752262       27.6902123340
  C        -1.0998001532       12.1028190277       29.8990682930
  C        -1.1119535423       13.4910792342       29.9801256564
  H         7.4032269325       13.9608322539       22.0430744040
  H         6.2602401471       12.7717190905       22.5567894565
  C         5.8370335275       13.4266367441       20.5386843244
  S         2.5721569434        5.7516750531       19.6872893026
  N         2.8830559275        6.2280584590       18.1377137525
  C         3.2707810329        8.5313138386       16.9925058633
  H         3.7403564995       10.6740812687       16.5614298436
  H         0.8618058630        8.7539381400       28.0863171263
  H         0.2066981640        9.3324547056       29.4925078639
  C         1.9498922380       10.4167672836       28.9927416170
  H        -1.6097823160        8.6120869472       27.0987887239
  H        -2.1035225539        9.3021948674       28.6764281645
  C        -2.8582808298       10.2511794602       27.0254340123
  H        -1.2417840534       11.3780492109       30.6913985003
  C        -1.3135208389       14.2966569510       31.2334745383
  H         4.9821278459       14.0511569133       20.2734693551
  H         5.3428174793       12.4287234922       20.5242219535
  C         6.8988234999       13.5727425194       19.3847787148
  C         3.4945177920        7.9554297759       15.6980419582
  H         2.3825291835       10.8700534659       28.0811959897
  H         1.7624963757       11.2524737160       29.6631384249
  C         2.9606800686        9.3894533296       29.5149717933
  H        -2.6067332934       10.2367165536       25.9931652487
  H        -2.9973081957       11.2436350833       27.2464597556
  C        -4.1155858981        9.4940580676       27.3277483163
  C        -1.3344846548       15.7157028681       31.3310548989
  C        -1.3098602430       13.6157567804       32.5146271099
  H         7.3332168006       14.6135833978       19.3961353007
  H         7.6746279202       12.8461086020       19.5779400056
  C         6.1316293764       13.3949113783       18.0228256424
  H         3.3738331011        6.8975592304       15.6864157303
  C         3.9470847680        8.4022847503       14.4717991447
  H         3.0978839507        8.6608070711       28.7347141518
  H         2.5716399335        8.8235535926       30.3595886761
  C         4.2742813120       10.0481180710       29.8089725921
  H        -4.0072795735        8.6309106055       26.6547334017
  H        -4.4548113611        9.3394345584       28.3623621257
  C        -5.2371947424       10.4115699414       26.6970913248
  N        -1.1152340775       16.6223808618       30.2485509869
  C        -1.4529051499       16.3792461562       32.5324627002
  C        -1.5043179811       14.2815813885       33.7283648521
  H        -1.3926691037       12.5381269791       32.5471015349
  H         6.7951687217       13.5580023831       17.1647362994
  H         5.8154644757       12.4211273769       17.7901939466
  H         5.3216888006       14.0974610118       17.8211095380
  S         4.4113557338       10.0539332846       14.0074677971
  C         4.0452129909        7.4507276798       13.3754843727
  H         4.3859153259       10.9287408765       29.2413604545
  H         4.2814988916       10.4110440268       30.8027273988
  C         5.4666662895        9.2142651160       29.5318458020
  H        -4.6845251038       11.0068396472       25.9220100386
  H        -5.5487243920       11.1778149982       27.4522498947
  C        -6.4526149166        9.7604511835       26.0997285623
  S        -1.0958891504       18.1644804288       30.7848190600
  N        -1.4288168087       17.7589432213       32.2989712971
  C        -1.7080499466       15.6977008102       33.7276384346
  H        -1.5802512365       13.7436827873       34.6255691456
  C         4.7018595983        9.3175310753       12.4001875956
  N         4.4698779519        7.9975072756       12.2372726384
  O         3.9212146923        6.2132900874       13.5349220401
  H         6.3328970089        9.8133751829       29.3282709840
  H         5.3413097299        8.4923674480       28.7126566301
  C         5.8859677878        8.3568845685       30.7043354784
  H        -6.1860940587        9.0763389124       25.2456245798
  H        -7.0049652088        9.1771223983       26.8769394106
  C        -7.3055785695       10.7587949439       25.4405646842
  C        -1.9804407461       16.4758928120       34.9225359278
  S         4.9128435176       10.1786775100       10.9263943189
  C         4.6443902427        7.2483839608       11.0210052523
  H         6.6352440560        8.9679421581       31.2435158614
  H         4.9496730136        8.1951430296       31.2078352332
  C         6.5702727853        7.0477068358       30.3078499314
  H        -6.8231725709       11.0866840382       24.5460164757
  H        -7.5011799018       11.5915002531       26.1176279919
  C        -8.6621341435       10.2115311018       25.0251897474
  H        -2.0282141480       17.5387485580       34.7502265113
  C        -2.2839925040       16.0914663785       36.2132198879
  H         5.5447436307        7.3784369707       10.4554212474
  H         4.7556472523        6.1941131211       11.2264839461
  C         3.4059094365        7.3770659194       10.1128109405
  H         7.5790340789        7.2806678731       29.9216884607
  H         6.0102398219        6.6558050214       29.4572097792
  C         6.6640728649        6.0037716365       31.4413612606
  H        -9.0813453069       10.7958202183       24.3193744887
  H        -8.5341487304        9.3680329390       24.4168185683
  C        -9.5297899879        9.8781672391       26.2091419084
  S        -2.5828604311       14.5082902176       36.8519417903
  C        -2.6792879909       17.2328890779       37.1476013016
  H         3.5492533983        7.7018843312        9.1108504618
  H         3.0256390214        6.3395603530        9.9709583546
  H         2.6071006731        7.9106461731       10.6358938167
  H         7.0996933268        5.0426019378       31.0266861891
  H         5.6821421120        5.9026627216       31.9049726351
  H         7.4565254049        6.3762640171       32.1634431727
  H        -9.2881392850        8.9324879768       26.6425633919
  H       -10.5450481346        9.8387610797       25.9242350777
  H        -9.4248650594       10.6615712513       26.9976523449
  C        -3.2185247043       15.3029796995       38.2924496120
  N        -3.2246189717       16.6413012453       38.2446369546
  O        -2.5324194954       18.4004222090       36.9189615817
  S        -3.9974578923       14.4464131915       39.6592258876
  C        -3.6467271663       17.4849758796       39.3825940298
  H        -4.0128539944       18.4529053739       39.0437266374
  H        -4.4203750048       16.9542476798       39.9394449610
  C        -2.5271004970       17.7623854277       40.3695488914
  H        -2.8448369407       18.4869233493       41.1356518672
  H        -2.1452166756       16.8865913791       40.9359474831
  H        -1.5687982010       18.0578721279       39.8831841455
  H         6.8991228390       11.1981801413        3.0280842471
  C         7.7047276786       10.4891864918        3.0360021714
  H         7.2986051400        9.5183123535        3.0695065669
  C         8.6312190165       10.5053919683        4.2049986165
  C         8.5667433709       10.4351948355        1.6734324290
  C         7.9767146050       10.7323401205        5.5865084389
  H         9.1098612167        9.5608993052        4.3433944249
  H         9.4387556342       11.1579431734        3.9505934893
  H         7.9273358210       10.1506002149        0.9148923092
  H         9.3746721227        9.7164929240        1.7311838519
  H         8.9211775568       11.4108245385        1.4328662927
  C         7.3623615886        9.5034284931        6.2519196883
  H         8.7973931531       11.0688575685        6.4057461970
  H         7.2667708108       11.5307439390        5.4733551006
  C         6.7859674854        9.9019926086        7.5968186075
  H         8.0750578772        8.7183013096        6.4280863363
  H         6.6114586358        9.1303644027        5.5771466451
  C         5.4439748244       10.6788525981        7.5126608730
  H         7.4626614222       10.5800977260        8.1069638888
  H         6.6389540065        8.9737367486        8.1669229272
  C         4.3006012796        9.8512906383        6.9958991995
  H         5.3055082439       11.1227021819        8.5270986319
  H         5.6249006193       11.5336031642        6.8642478089
  C         2.9685393859       10.7002318025        6.7626500697
  H         4.2093773992        9.1479589302        7.7559826826
  H         4.4036732880        9.2656763494        6.0579550096
  C         3.3146122949       12.0419232397        6.0847284222
  C         2.5675280063       11.3715587756        7.9830417699
  C         1.7877842040        9.9666797801        6.0920592511
  C         3.0407049966       13.1228723242        6.8626042557
  C         3.9437514385       12.4245085207        4.8979233714
  C         2.5748232518       12.7073022485        8.1195185127
  C         2.0326354233       10.7816977433        9.1171336002
  H         2.1839034741        9.4359858524        5.2413390042
  H         1.3333920959        9.1646255183        6.7194263431
  C         0.5893663996       10.9223889537        5.7488128603
  S         3.3776845335       14.6495945680        6.1216069630
  C         4.1106275462       13.8118580259        4.7723220182
  H         4.4604641636       11.6455217015        4.3258713472
  C         2.1002187247       13.2888844403        9.2582103276
  H         1.9598041114        9.6772672214        9.0470700362
  C         1.6738682844       11.4085755397       10.2821777622
  H         0.7506610693       11.8760517690        5.2029759541
  H         0.2443078287       11.2212938019        6.7082154205
  C        -0.4966030492       10.2189409845        4.9546004787
  C         4.6672926470       14.5538786402        3.5409897307
  C         1.7643748822       12.7347346642       10.4489809798
  H         2.1054183162       14.3485150065        9.2453871250
  C         1.2163618957       10.9708463454       11.4911487879
  H        -1.3732945951       10.8603660776        5.0118161806
  H        -0.8691122090        9.3598141462        5.4988135206
  C        -0.1116335253        9.9665381680        3.4821477825
  C         4.6498796776       15.9531317834        3.3235867194
  C         5.0078258141       13.7223508432        2.3706618517
  C         1.4213423178       13.4039088620       11.7119896981
  C         1.0166121875       12.0395572359       12.3194767333
  S         0.8743053080        9.3960880739       12.1770018855
  H         0.6364317649        9.1696625367        3.4772806100
  H         0.3459244548       10.8866383921        3.0983584151
  C        -1.2907219383        9.6269759807        2.5821764650
  N         4.3853114080       16.8949795360        4.3153054406
  C         4.8585419754       16.4845011324        2.0530607741
  C         5.2099100628       14.2639586959        1.0907211696
  H         5.0638103724       12.6890571904        2.5410984428
  C         0.2482301922       14.3843572465       11.6104251422
  C         2.8306064608       13.9247371929       12.1942802845
  C         0.5573356152       11.5383254038       13.6050412258
  C         0.5577791241       10.1256208131       13.7024628628
  H        -1.9662383442        9.0234302218        3.2168803691
  H        -1.7521119820       10.5834917233        2.1536793848
  C        -0.9006006683        8.7648405325        1.3401853904
  S         4.3102677800       18.2843406352        3.5717940229
  N         4.8040676824       17.8690590885        2.0882669338
  C         5.2244947402       15.7390393637        0.8862280118
  H         5.4117292754       13.5458134645        0.2886170986
  H         0.4444870310       15.0020872846       10.6642871278
  H         0.2814009853       14.9727334756       12.5264424666
  C        -1.0946225665       13.6157989222       11.4195028435
  H         3.6223300020       13.2054336420       11.8221594030
  H         3.0594099520       14.8369839576       11.6082060714
  C         2.9056300895       14.1308363349       13.6887575928
  H         0.3785232966       12.2211313738       14.4474316099
  C         0.3036438199        9.3817884933       14.9842958475
  H        -1.8619941987        8.4798402618        0.8276424153
  H        -0.4297077954        7.7768684356        1.7836776983
  C        -0.0355673342        9.5519321079        0.2714228654
  C         5.4429867491       16.3728457038       -0.3675017719
  H        -1.0341817280       12.6682353068       10.7776590795
  H        -1.3008274591       13.2276504117       12.4156109413
  C        -2.1985178737       14.4175093536       10.9353387346
  H         2.7205034539       13.1923593228       14.2282545356
  H         2.0186168166       14.6267262634       14.0832989341
  C         4.1514603448       14.8000616380       14.3412404222
  C         0.4512029084        7.9874467199       15.1355787258
  C         0.0294318412       10.1467997314       16.1664894534
  H        -0.0759195648       10.5774803333        0.6224170384
  H         0.9889342196        9.2569254408        0.1485328975
  C        -0.7047325612        9.5321350802       -1.0995954947
  H         5.3002876952       17.5064754415       -0.3334697194
  C         5.7309369418       15.8661599392       -1.5783800577
  H        -1.9720054872       15.0605912600       10.0725825535
  H        -2.3644662808       15.1633876364       11.6889424660
  C        -3.4315383175       13.5327678425       10.7621654080
  H         4.2359849955       15.8719730104       14.0453658549
  H         3.9530551831       14.7672155503       15.4418888038
  C         5.4550138700       14.0008469855       14.1327089402
  N         0.7879034082        7.0422635177       14.1082631899
  C         0.2872446035        7.3758868981       16.3583397267
  C        -0.0881301575        9.5612875522       17.4149723988
  H        -0.2107761649       11.1997292718       16.0471672220
  H        -1.6700977349       10.1266168042       -1.2305826611
  H        -0.9225584186        8.5255597464       -1.3835662997
  H         0.0255089210        9.8779571995       -1.8551275565
  S         5.9535130685       14.2265477206       -2.0782053317
  C         5.7911597031       16.8837728443       -2.7060753484
  H        -3.1184245996       12.7972852974       10.0154656849
  H        -3.8287869844       13.0557217513       11.6460171658
  C        -4.5095174966       14.3871546321       10.0459216289
  H         5.3498418682       13.3505876756       13.2217010708
  H         5.6126738300       13.3406765228       15.0249398416
  C         6.6822245323       14.8341099792       13.8280533117
  S         1.0463241510        5.6101408194       14.8657453030
  N         0.4597341105        5.9971292291       16.3014516913
  C        -0.1741341797        8.0890257552       17.4777340709
  H        -0.2559402475       10.2021405402       18.2896187740
  C         6.1821181718       14.8757811069       -3.6738283082
  N         6.1058861780       16.2217957066       -3.7989676914
  O         5.6915191401       18.1222980842       -2.5807993653
  H        -5.1958144564       14.9811078173       10.7012415925
  H        -3.9924041752       15.1635308665        9.4950191172
  C        -5.2539581230       13.3019395161        9.2524861267
  H         7.4897848811       14.1096738853       13.6085601461
  H         6.4988420551       15.3924331694       12.9352836462
  C         7.0711189284       15.7628644015       14.9763490823
  C        -0.4748006452        7.3217588685       18.5900862083
  S         6.6545659627       13.9582272103       -5.0836613534
  C         6.3187079496       16.9704564956       -5.0500905627
  H        -4.6419750539       13.0114544908        8.4240269336
  H        -5.3232748366       12.3962717560        9.7804459695
  C        -6.5501191216       13.8120225903        8.7917672890
  H         7.4927799845       15.2769740158       15.8914060161
  H         6.1654358651       16.2570234296       15.3632094771
  C         8.1712615088       16.7811525181       14.6278551716
  H        -0.2347031983        6.2841025113       18.5204494909
  C        -0.9246825221        7.6112450003       19.8552068743
  H         7.0674867892       16.5218910419       -5.7550182667
  H         6.8161208915       17.8593136033       -4.7783797226
  C         4.9995889765       17.2825127478       -5.8128462160
  H        -6.6638790496       13.5667006263        7.7448697846
  H        -6.4426965305       14.9763080920        8.8149092964
  C        -7.6801542442       13.2847920132        9.7301290194
  H         8.7148842080       16.8801910412       15.5781537462
  H         8.8826164598       16.2653186218       13.8957802656
  C         7.7448392352       18.2344781717       14.1178162185
  S        -1.5066122246        9.0897087081       20.4178092536
  C        -0.9216450533        6.5071872773       20.8882697168
  H         4.9216998111       18.3266267499       -6.1682984100
  H         4.1914129337       17.2760314391       -5.1032435179
  H         4.6730235654       16.6534586379       -6.5843301090
  H        -8.5290080461       13.8859740128        9.6340250743
  H        -7.9404040063       12.2389995212        9.5849452569
  H        -7.2801766007       13.5483211432       10.6768499706
  H         8.6224300947       18.5560266537       13.5826404312
  H         6.9941810573       18.2341058880       13.4226939588
  H         7.4164190291       18.7294076484       14.9824223026
  C        -1.5353730523        8.3042353053       22.0318634285
  N        -1.3885977438        7.0114432068       22.0688654168
  O        -0.5701275955        5.3666368329       20.7064123045
  S        -2.1253275048        9.0839171792       23.4848425907
  C        -1.3695606280        6.1382712273       23.2597280836
  H        -1.5311957938        5.0570654404       23.0999905654
  H        -2.3134951773        6.2893856768       23.7523746171
  C        -0.0689361913        6.3477442617       24.1446754980
  H         0.4943418101        7.2504034458       23.8130122756
  H         0.5819749524        5.5273240679       24.1312820952
  H        -0.3793413819        6.5336446824       25.1829993531
