352
i =
  H        -3.4490416431       13.2965296739       16.1771217198
  C        -2.4888934775       13.8335107110       16.3605536972
  H        -1.6537373728       13.1175263637       16.2859753780
  C        -2.2536710257       14.7200252504       17.5722836616
  C        -2.4936987145       14.6086202649       15.0310033112
  C        -2.7211202302       14.0695294301       18.7764503693
  H        -1.1352107788       14.8795422625       17.6673464826
  H        -2.6922865447       15.7329961366       17.4249423550
  H        -3.4562189707       14.3975255877       14.4717787162
  H        -2.4025434280       15.6184737680       15.2930395301
  H        -1.6987880638       14.2803681578       14.3495191002
  C        -1.5988773050       13.9954571102       19.7887519151
  H        -3.1350245700       13.0683176151       18.5481237789
  H        -3.6038587675       14.5943334172       19.2755853579
  C        -2.1320462998       13.8281623451       21.2264410586
  H        -1.0440105642       13.0563452977       19.6930341252
  H        -0.9003591276       14.8478074274       19.7992346855
  C        -1.0117249116       13.2342954170       22.1219415184
  H        -2.9709482427       13.0808838863       21.2409441264
  H        -2.4128549759       14.7807049236       21.6112839417
  C         0.1868534668       14.0968791248       22.4332254233
  H        -1.4381661998       13.0006137426       23.1045560461
  H        -0.7428759028       12.2539972351       21.7601887146
  C         1.2986948149       13.3382541781       23.1896025891
  H         0.5366103517       14.5230994393       21.5483375422
  H        -0.1751082737       14.9065478786       23.0464367575
  C         1.6597940577       12.0027054263       22.5927562752
  C         0.7446299102       12.6313756742       24.4473793916
  C         2.6044835964       14.2247182235       23.4095522340
  C         1.3644466329       10.8647896090       23.3536396233
  C         2.0232620550       11.5781703753       21.3158539111
  C         0.8189200500       11.2552033450       24.6021398020
  C         0.1732623311       13.2409238955       25.5314842884
  H         2.9376596474       14.7068053305       22.5039735585
  H         2.3078928100       14.9841399558       24.1659414836
  C         3.7329591179       13.5097593780       24.1439202526
  S         1.5915731911        9.3904209361       22.5867394948
  C         2.1174719874       10.1919252761       21.1897330557
  H         2.1718161881       12.3822459141       20.5873348066
  C         0.4375275179       10.6207619279       25.7174199902
  H        -0.0045469939       14.3221587271       25.4078691582
  C        -0.1192620457       12.5721787661       26.6952573312
  H         4.0959843306       12.6394591085       23.5209995081
  H         3.2723761062       12.9880752373       24.9577435305
  C         4.9706735952       14.3532520031       24.4188810837
  C         2.5193146567        9.3837582865       19.9991418655
  C         0.0113246713       11.2564428825       26.8385235106
  H         0.7416765212        9.6054706513       25.7603400823
  C        -0.4789507609       12.9964137411       27.9296749766
  H         5.6884404174       13.8541060972       25.0755173551
  H         4.5345665255       15.2653006914       24.9075225729
  C         5.7392660859       14.6286254484       23.0746643390
  C         2.5094193708        7.9365086325       19.8323991124
  C         2.8848602440       10.1863687689       18.8169605463
  C        -0.4224444292       10.5589956204       28.1193291951
  C        -0.6654165293       11.9315183471       28.8147299155
  S        -0.7472795446       14.4622734903       28.5665038119
  H         6.5230918028       15.2223530993       23.4054685254
  H         5.1884930620       15.3153172566       22.4420256823
  C         6.3357430314       13.5224258403       22.1992153689
  N         2.1220752719        6.9867054751       20.7866668236
  C         2.7276558026        7.3336966043       18.6076391372
  C         3.1763409392        9.5708121974       17.5648018115
  H         3.0233450683       11.2402068158       18.9065984440
  C         0.7491547845        9.8150241080       28.8477618737
  C        -1.7647040062        9.7489293650       27.8764802258
  C        -1.0942782428       12.3606846765       30.0555716828
  C        -1.1002710148       13.7528910094       30.1401111769
  H         7.3982709409       13.8557889479       22.1765868202
  H         6.3126404395       12.5516694582       22.7367177515
  C         5.7408018557       13.4019787478       20.8510072492
  S         2.1643841178        5.5163024582       20.1132357133
  N         2.4457997351        5.9634702383       18.5600639149
  C         3.0247836544        8.0201532376       17.4454063444
  H         3.5032731839       10.3109809093       16.7932584029
  H         1.0295278352        8.8780110629       28.3438614006
  H         0.4865426634        9.6246325402       29.8729437910
  C         2.0674653315       10.4571108342       29.1290504289
  H        -1.5830936237        8.9934347443       27.1390709554
  H        -2.1349036491        9.2466614590       28.8298891589
  C        -2.9977624800       10.5829612900       27.3806390587
  H        -1.2524443272       11.6330234051       30.7263209099
  C        -1.3708905479       14.5877659427       31.3826769338
  H         4.5974109131       13.5134552918       20.9773951638
  H         6.0062448668       12.4241174361       20.5980842783
  C         6.2402244071       14.3951528347       19.7568421782
  C         3.2484447445        7.2622772752       16.2650385447
  H         2.2267148905       11.1731670205       28.2955952051
  H         1.9929606225       11.0712291506       30.0612254208
  C         3.1931015455        9.3204732026       29.2236862820
  H        -2.5832153233       11.1599061150       26.5717297183
  H        -3.2843428827       11.2374344316       28.2366543557
  C        -4.1063918020        9.7232068220       26.9165629286
  C        -1.3111621828       15.9901509041       31.5218084920
  C        -1.6750430302       13.8512412062       32.6341144735
  H         5.4057187535       14.4054525314       18.9947511840
  H         6.2680329755       15.3186772223       20.2831719106
  C         7.5328975242       14.0529218338       19.1241790974
  H         3.3493933622        6.2031554512       16.3916905411
  C         3.5393932452        7.6396450098       14.9839267367
  H         2.9762336815        8.6495602264       28.4146659781
  H         3.0352354656        8.7065337315       30.1483835230
  C         4.5842472073        9.9217082952       29.2897841997
  H        -3.8821504460        9.0973384798       26.0638632996
  H        -4.4523014711        9.0187937579       27.6574831213
  C        -5.2553935524       10.6627001821       26.4516972882
  N        -1.0765301636       16.8151171118       30.4679130043
  C        -1.6363067163       16.6480539604       32.6543490897
  C        -1.9264930634       14.4964126773       33.8033465327
  H        -1.5148013375       12.7442777096       32.6150530288
  H         7.4057411937       14.3415353844       18.1436062212
  H         8.2376319958       14.7830894026       19.5466693817
  H         7.8353960709       12.9985297241       19.1328177226
  S         3.6553854014        9.2503205046       14.3814368307
  C         3.6607741611        6.5248603176       14.0214735677
  H         4.7275700421       10.7977447171       28.5947478995
  H         4.6844668020       10.3983844917       30.2598882239
  C         5.5897148467        8.7318882534       29.2297965766
  H        -4.8495582257       11.6275818484       26.1878302423
  H        -6.0123885895       10.8951689318       27.2444395266
  C        -5.9526165053       10.2376442391       25.1978859787
  S        -1.2083016203       18.3488256677       30.9015260379
  N        -1.6210836595       18.0296649793       32.4830490944
  C        -1.9153432022       16.0344570405       33.8432967590
  H        -2.0161153859       13.9582007986       34.6611972347
  C         3.9005106958        8.3728275458       12.7918863167
  N         3.7389505733        7.0469772485       12.7941933205
  O         3.2939761885        5.3605444902       14.2892930687
  H         6.5048985189        9.0898508682       28.8308322416
  H         5.2496366687        7.9563623246       28.5638522658
  C         5.9172465190        8.1160210297       30.6245634665
  H        -5.4896162260       10.6919216194       24.3226068096
  H        -5.8590260158        9.1416045189       25.0525116556
  C        -7.3793746300       10.7785867211       25.0345187090
  C        -2.2087578538       16.7447579771       35.0093149239
  S         4.2008879016        9.0863995581       11.1938033202
  C         3.7094641749        6.1359170256       11.6585114523
  H         6.8163515784        8.5103681288       31.0455010497
  H         5.0987482693        8.3742438630       31.2690521572
  C         6.0855948393        6.5325595566       30.5143658279
  H        -7.6758907748       10.8488741768       24.0326833053
  H        -7.3151821174       11.7936497173       25.4221559459
  C        -8.3528712637        9.8479711501       25.7327397711
  H        -2.2629056615       17.8299609104       34.8715340837
  C        -2.7844593427       16.3791654547       36.2074404813
  H         3.8616713565        6.5489159744       10.6885327235
  H         4.4107697519        5.3012689859       11.7368632989
  C         2.2455167907        5.6351305607       11.5056034243
  H         7.0022052577        6.2574630098       29.9774176772
  H         5.2384820927        6.2158773866       29.8659844773
  C         6.0083182225        5.8072349490       31.8124510290
  H        -8.6538705675        9.0211977461       25.0979890352
  H        -7.8433743083        9.4290845794       26.6635974040
  C        -9.6200967498       10.5676983982       26.0889433301
  S        -3.2684124115       14.8110598294       36.7254529630
  C        -3.1268766941       17.4281168806       37.1447305351
  H         1.8329694508        5.4525644892       10.5210324233
  H         2.1847035707        4.7074584391       12.1048955308
  H         1.5905947820        6.2900520950       12.0195336029
  H         6.8781011404        5.2907445100       32.0358722779
  H         5.3547029092        4.9438940933       31.6880545988
  H         5.6496119925        6.4319688869       32.6773902530
  H       -10.2337226646       10.7109781562       25.1910257801
  H        -9.4106894058       11.5598043787       26.5064377218
  H       -10.1824082818        9.9325117251       26.7713132723
  C        -3.8656379872       15.5217386583       38.2144095627
  N        -3.7348032947       16.9266842330       38.2708188737
  O        -2.9914920569       18.6882363597       36.9688642771
  S        -4.6721472577       14.7377450518       39.5948456026
  C        -3.9649703822       17.8204038406       39.4133800040
  H        -4.1239208668       18.8243395956       39.0707787963
  H        -4.8911648017       17.5028029049       39.8786521649
  C        -2.6904639705       17.6402727175       40.3006379180
  H        -1.8759594981       18.1411035113       39.7852455234
  H        -2.8127414069       18.0292891057       41.2194939768
  H        -2.4045467134       16.5937264864       40.5014845315
  H         7.2053159184       11.7862782256        3.5190700065
  C         7.7789475590       10.9124375471        3.6520873246
  H         6.9278258487       10.1421006547        3.6588679635
  C         8.4615658036       11.0864843726        4.9943489645
  C         8.7617925233       10.7313137173        2.4343158201
  C         7.5224696753       11.0512269873        6.1542286193
  H         9.1240676362       10.2641081246        5.0728781407
  H         9.0494237985       11.9853861531        5.0879092724
  H         9.1852825877       11.6936450156        2.0905358795
  H         8.2019352767       10.2594265190        1.6005474702
  H         9.6170234028       10.1320556199        2.8329496668
  C         7.1140215513        9.7069094944        6.5765142629
  H         8.0600575496       11.4592081357        6.9629169318
  H         6.6769449037       11.6485020733        5.9217298340
  C         6.4391842003        9.8126887082        7.9875258164
  H         7.9749540572        8.9572714671        6.7747084659
  H         6.4409348045        9.1780099755        5.9318366104
  C         5.0491339421       10.5281191930        8.0529991465
  H         7.0963670809       10.3701546660        8.6701452121
  H         6.3605532247        8.8445978935        8.4193504562
  C         3.8931531383        9.8970680778        7.2371609165
  H         4.7863768167       10.5453549491        9.1193682409
  H         5.2684938472       11.5460395798        7.7420764932
  C         2.6766662900       10.8152006323        6.9710511693
  H         3.4666115380        9.0633431660        7.7920785141
  H         4.3748607040        9.5050785711        6.3371090529
  C         3.0961940107       12.1459229211        6.2762792113
  C         2.2798540185       11.4394919061        8.2404072651
  C         1.6113448463       10.0238545187        6.2106230539
  C         2.7869787896       13.2397267183        7.0639183347
  C         3.6626016737       12.5304997128        5.0177354670
  C         2.3828748481       12.7990812794        8.2697250130
  C         1.7267329141       10.8131853750        9.4230142884
  H         2.0615200846        9.5215439471        5.3747022251
  H         1.2002937098        9.2459411836        6.8988905292
  C         0.4212479607       10.8966689984        5.7866889533
  S         3.1422248152       14.6913093721        6.3426329656
  C         3.8326740341       13.8798894854        4.9810311939
  H         3.9879919472       11.7479046619        4.3790357250
  C         1.9759847605       13.3982806588        9.4301105969
  H         1.5609241112        9.7800347087        9.3635569303
  C         1.3941496628       11.5126692410       10.5535399369
  H         0.7287374977       11.6622193918        5.1334658424
  H        -0.0913631089       11.3843988069        6.6673747335
  C        -0.6679336801       10.0611920936        5.0432502624
  C         4.3506368286       14.6589136459        3.8013810754
  C         1.4133872814       12.8672724089       10.6128852707
  H         2.1851822502       14.4157440898        9.3881216398
  C         0.9186623343       11.1508093472       11.8228834348
  H        -1.5652829946       10.6811726381        5.0677370161
  H        -0.9375163471        9.0640889837        5.3891991608
  C        -0.2450961213        9.8677853344        3.5502794032
  C         4.4003298024       16.0601731349        3.5966502748
  C         4.6676066271       13.8816399934        2.5842812276
  C         0.9623087022       13.5991543449       11.8517380814
  C         0.6341732099       12.2391824876       12.5968597983
  S         0.6680999194        9.6252719671       12.5586372513
  H         0.2209235853        8.8682865063        3.4962142242
  H         0.4613884593       10.6684317058        3.3682355510
  C        -1.4624383232        9.9270826460        2.6199187415
  N         4.1161613800       17.0183336266        4.5727758691
  C         4.6409403670       16.6979927605        2.3892238084
  C         4.8623275517       14.4786842491        1.3939300711
  H         4.6676347201       12.7916479102        2.5884644491
  C        -0.3910310389       14.3843224396       11.7112505450
  C         2.0199248977       14.2968551957       12.6842468269
  C         0.2653529809       11.8354023171       13.9133264770
  C         0.3601218170       10.4788368356       14.0406578036
  H        -2.1928753175        9.3357636090        3.1742589367
  H        -1.9756981213       10.8934260418        2.5681115686
  C        -1.2577010014        9.3273204228        1.2365221692
  S         4.0731024996       18.5309134558        3.8786918213
  N         4.4303611230       18.0976071192        2.3673686145
  C         4.8924491110       15.9394503150        1.2294838246
  H         5.2422469579       13.9483963540        0.5519388072
  H        -0.2321325521       15.0898367102       10.8610003156
  H        -0.6969832250       14.9490771252       12.6175610386
  C        -1.6111965422       13.5942390158       11.3722569290
  H         2.3129436106       15.0385271623       11.9912205221
  H         1.5170603159       14.8956643492       13.4945088441
  C         3.2658237202       13.4497779977       13.2002269641
  H         0.1268264419       12.5468127634       14.7022410903
  C         0.1315598730        9.7163836067       15.3138566911
  H        -2.1825051268        9.2917326024        0.6264750057
  H        -0.8903124989        8.2748781898        1.2856437219
  C        -0.2612948555       10.0695426112        0.3108657226
  C         5.0131379498       16.5175197244       -0.0892002350
  H        -1.2826235342       12.7522835645       10.6776323531
  H        -1.9601942328       13.0336546059       12.2894062348
  C        -2.7640700408       14.4112191715       10.7903555489
  H         3.7525991254       12.9303938618       12.3759963923
  H         3.0306218826       12.7684524443       13.9709234238
  C         4.4541572512       14.3601793196       13.5979261012
  C         0.0277583321        8.3222926634       15.4173710293
  C         0.0541531195       10.4648954789       16.6229545430
  H         0.1419070785       10.9387570979        0.7943738172
  H         0.5338314178        9.3417158187        0.1585961159
  C        -0.9700556613       10.5464661307       -0.9607889851
  H         4.6935037909       17.5175251721       -0.1502466234
  C         5.3992583495       16.1178678499       -1.3417140400
  H        -2.4564879110       15.1243024064        9.9533212715
  H        -3.2360365246       15.0908483184       11.5202750821
  C        -3.9018258800       13.5583213004       10.2603485957
  H         4.9963102310       14.5894168405       12.6907658423
  H         4.0618586256       15.3203456541       13.9992133314
  C         5.4001808399       13.7358751558       14.6174771184
  N         0.1752993673        7.4243908206       14.3778805754
  C        -0.1813832785        7.7223393640       16.6050280527
  C        -0.2373266735        9.7885808286       17.7912145905
  H         0.1279845798       11.5543391866       16.7023870770
  H        -1.9546518062       11.0166131953       -0.7255065471
  H        -1.2360193903        9.6474582138       -1.5440930249
  H        -0.4397541144       11.2077435170       -1.6499351244
  S         5.7230136581       14.4755949195       -1.9086892642
  C         5.4262602995       17.1083214438       -2.3713614088
  H        -3.4456556401       12.9757796185        9.4720907738
  H        -4.1636476929       12.8390736031       11.0170186030
  C        -5.1318008640       14.2783347377        9.7928044988
  H         5.5738120349       12.6944312943       14.3687466919
  H         4.9763018275       13.7130607926       15.6057840894
  C         6.7902320186       14.3805459992       14.6078006944
  S         0.0425514625        5.9793682881       15.0392631485
  N        -0.3036697272        6.3909221023       16.5375039158
  C        -0.4190550461        8.3829952542       17.8351259845
  H        -0.2658962388       10.2964353371       18.7567005301
  C         5.9149948717       15.2133721026       -3.4998305282
  N         5.8213549811       16.5633482268       -3.5166518191
  O         5.1131946082       18.2868494070       -2.2405955466
  H        -5.6756478188       14.9357723619       10.5671651684
  H        -4.8315124361       15.0300338419        9.0520149989
  C        -6.0822420787       13.2926291101        9.0776530190
  H         7.3681030402       13.7178452359       15.2701996907
  H         7.2196033796       14.4123449350       13.6572191020
  C         6.7541804382       15.6920865274       15.3094282728
  C        -0.7054173009        7.6649652170       19.0252794255
  S         6.2352422320       14.4052514403       -5.0358056021
  C         5.9151419356       17.4014261110       -4.7757443363
  H        -5.4895185789       12.7921334312        8.2953098401
  H        -6.5742931776       12.4420425822        9.7040740740
  C        -7.2330825593       14.0304173926        8.3588002163
  H         6.6403967836       15.5963029089       16.3374718019
  H         5.9435014920       16.2568071412       14.8916562449
  C         8.0340476567       16.4409256222       14.8740603020
  H        -0.4525933312        6.6563156897       19.0099066244
  C        -1.3042861987        8.0517463591       20.1889305441
  H         6.6973729094       17.0231364045       -5.5402328280
  H         6.1953685075       18.4214959315       -4.5879023007
  C         4.4977146740       17.5158345465       -5.3693448482
  H        -7.7383473676       13.4723696029        7.5719809000
  H        -6.9146568913       14.9466664550        7.8040972370
  C        -8.2899822584       14.4543407229        9.3622486659
  H         8.5131850551       16.8738121721       15.7848760246
  H         8.7635159854       15.7783346484       14.4584329762
  C         7.8193553122       17.6045867284       13.9043734194
  S        -2.0253448221        9.6017749567       20.5539992090
  C        -1.4864574496        6.9778337217       21.1846965578
  H         3.8765522313       16.9144295467       -4.7404982093
  H         4.5796776203       17.1626540399       -6.3966363188
  H         4.0826065245       18.4803802122       -5.4595559573
  H        -8.8121712002       13.5844828098        9.8329434391
  H        -7.7694364083       15.1161309809        9.9711974210
  H        -9.1266202154       14.8803524082        8.8373054693
  H         7.6713834202       17.3183911413       12.8335098898
  H         6.8928491334       18.1134818006       14.1601662423
  H         8.5695959886       18.3495358777       14.0259957002
  C        -2.2961973563        8.9076789265       22.1292988569
  N        -2.0126238828        7.5378867841       22.2764907049
  O        -1.0407384940        5.7883730121       21.1326890022
  S        -2.8507288277        9.8495655848       23.5547752605
  C        -2.0825311296        6.9131276659       23.5855870887
  H        -2.3354759820        5.8661906701       23.3977406452
  H        -2.8981237923        7.3417964243       24.1266781901
  C        -0.7931060816        7.0095291896       24.4777620192
  H         0.0361200210        6.5638546077       23.9804638094
  H        -0.9336945382        6.3924282401       25.3896167973
  H        -0.5590650811        8.0155884327       24.7362161411
