352
i =
  H        -3.6214293904       14.5580038280       16.4354727323
  C        -3.1725150589       13.5639234035       16.4095902612
  H        -4.0614078922       12.9486542307       16.7112651716
  C        -2.0124619785       13.3471701297       17.3111051082
  C        -2.6909607491       13.2400761484       14.9996986880
  C        -2.3712523349       13.9237274117       18.7365979805
  H        -1.9461174511       12.2424145466       17.3291065541
  H        -1.0477623694       13.7028168660       16.9548464291
  H        -1.6439606350       13.4793544914       14.7473058649
  H        -2.9023734607       12.1341592521       14.8634570285
  H        -3.3446261524       13.7073004828       14.3008125526
  C        -2.0545053317       12.9361683111       19.8633542068
  H        -3.4224531779       14.1310890664       18.6960248760
  H        -1.8268023493       14.8370214323       19.0816575011
  C        -2.1911353848       13.5716903697       21.2855646236
  H        -2.7859442447       12.1392518100       19.7280703646
  H        -1.0379758976       12.5959661784       19.6595797863
  C        -1.1832996776       12.8976559030       22.2193413271
  H        -3.1996076686       13.4107507337       21.6386778133
  H        -2.0982835127       14.6312824417       21.1654378824
  C         0.0184888651       13.7753268153       22.4464518497
  H        -1.7286495626       12.6084278474       23.1382650752
  H        -0.8197254997       11.9970706457       21.8128788032
  C         1.2710077579       13.0823479185       23.1018157944
  H         0.4225663165       14.3149111159       21.5526190489
  H        -0.3170603829       14.6369697346       23.0878374133
  C         1.7584802732       11.7920117116       22.4075079259
  C         0.8926297302       12.2965517840       24.2467849061
  C         2.3762326633       14.1119491117       23.4324420872
  C         1.5545814115       10.6224359444       23.1229057275
  C         2.3612294227       11.6057104220       21.1379987780
  C         1.0070082882       10.9439747272       24.3912646207
  C         0.2878418055       12.9904239493       25.3664752116
  H         2.4821166865       14.6975103865       22.5124882412
  H         2.0271417065       14.8228929507       24.2239701987
  C         3.7406618208       13.4158072890       23.6992522169
  S         2.0998522514        9.2317846622       22.2943611362
  C         2.4884704676       10.2535890886       20.9184343530
  H         2.5063590439       12.5059344206       20.5449730009
  C         0.5804034378       10.3604042969       25.5402576209
  H         0.0792673508       14.0411105803       25.2640530439
  C         0.0112426654       12.3931833136       26.5153542594
  H         4.0530611008       12.7111872467       22.9005814196
  H         3.7956344910       12.6487316743       24.5386106163
  C         4.8480113067       14.4377227190       24.0386353476
  C         2.9847570041        9.6683683919       19.6217494799
  C         0.1004037720       11.0475106271       26.6736700631
  H         0.5721370107        9.2864243395       25.6294539071
  C        -0.3561318466       12.7876750411       27.7820078048
  H         5.5640639211       14.0434343419       24.8346704692
  H         4.4234870354       15.3089008598       24.5930451274
  C         5.7828602939       14.9679570858       22.9507697091
  C         3.0447365633        8.2643715378       19.2990064276
  C         3.3006291088       10.6537697642       18.4793409178
  C        -0.2580991172       10.3725295606       27.9637789534
  C        -0.4980637169       11.7348114403       28.6406299751
  S        -0.6218934183       14.3156985781       28.4585644062
  H         6.5832242259       15.5152005549       23.4681311111
  H         5.2512886076       15.6467497592       22.3573314136
  C         6.3935565271       13.7773875169       22.1080262991
  N         2.6650693246        7.2881258887       20.1838867930
  C         3.4161543415        7.7955626720       18.0293314188
  C         3.5929703538       10.1800614621       17.2071126052
  H         3.2954457105       11.6783287681       18.6819302720
  C         0.8088893660        9.5618453670       28.7110163742
  C        -1.5658041495        9.5595378786       27.7523145560
  C        -0.9767967761       12.1775276109       29.8554662516
  C        -0.9891387536       13.5626166704       29.9331320787
  H         7.4407163085       13.9960680350       22.0207018355
  H         6.5049620039       12.8002777612       22.6877673897
  C         5.8097854773       13.5690973594       20.6944261332
  S         2.6571316390        5.8472971839       19.3308670047
  N         3.1715264201        6.4063442873       17.8776384604
  C         3.6779921040        8.6841824047       16.9499709164
  H         3.8502162676       10.8378903599       16.3451032310
  H         1.0464292587        8.6255015745       28.2094941924
  H         0.3941450144        9.1971274780       29.6834832401
  C         2.1177630133       10.3009479209       29.0258321084
  H        -1.2502784624        8.8214827076       27.0463065654
  H        -1.9174177381        9.1396086885       28.6461797914
  C        -2.7456630450       10.3721057490       27.1587280199
  H        -1.2579519896       11.4179966987       30.5500329635
  C        -1.3623272660       14.3477649069       31.1689089871
  H         5.1314282511       14.4131563259       20.5220497013
  H         5.1255898055       12.6980765321       20.6132123455
  C         6.9304486829       13.2502776797       19.6663652559
  C         3.7430700505        8.0349465728       15.6744891755
  H         2.4415135585       10.8962653552       28.1614507210
  H         1.9253471333       11.0032985784       29.7902322035
  C         3.2334680921        9.3806212227       29.4962026737
  H        -2.5084493002       10.6310146917       26.1406224147
  H        -2.9011541981       11.3015989194       27.6081144772
  C        -4.1713308137        9.6336104438       26.9840288896
  C        -1.3117172718       15.7525737876       31.3319740415
  C        -1.5599966275       13.5900891793       32.3880203243
  H         7.8233887232       13.9336274659       19.9354246121
  H         7.2506675499       12.1875916511       19.6131871257
  C         6.3849250976       13.6284161035       18.2320209564
  H         4.0364242681        7.0362157523       15.7746721294
  C         3.9366986342        8.4741217584       14.3679751103
  H         3.3659648591        8.6867694293       28.6367255966
  H         2.9256681701        8.7482236464       30.3762024325
  C         4.6208632373       10.0450643971       29.6740524573
  H        -4.1078732991        8.7862678928       26.2780048483
  H        -4.4836497547        9.2772711761       28.0009207457
  C        -5.2186819703       10.4694052886       26.2882930707
  N        -1.0840089090       16.6910191196       30.3460729119
  C        -1.6024729426       16.3687113258       32.5134616108
  C        -1.8538335600       14.1969788625       33.5932990595
  H        -1.7107336634       12.5178207321       32.3191093822
  H         6.7242858181       12.9036706391       17.4713682663
  H         5.3570376208       13.4776605241       18.0845830935
  H         6.7401604411       14.6507689977       17.9741331149
  S         4.1551815454       10.1095383890       13.8678588999
  C         4.0752030703        7.4271939237       13.2978340717
  H         4.7717173885       10.6588126499       28.8104602112
  H         4.7240937754       10.6962923547       30.5213814872
  C         5.8562289424        9.1266424140       29.6469243094
  H        -4.7684276146       10.9381842976       25.3733945255
  H        -5.5664297077       11.2728543873       26.9722408271
  C        -6.3309854304        9.5900413217       25.7109454152
  S        -1.2289663891       18.1867432583       30.9243557917
  N        -1.5402363860       17.7416877787       32.4798250214
  C        -1.8696798119       15.6810647710       33.7526420179
  H        -2.0699479425       13.6072192653       34.4755457503
  C         4.5536526819        9.3897625675       12.3237360061
  N         4.4172551628        8.0552554990       12.1329722487
  O         4.0130009030        6.2351055792       13.5372777626
  H         6.7219188498        9.6700398569       30.0020269015
  H         5.9986646343        8.7249538875       28.6138798931
  C         5.7234460709        7.9367978212       30.5890831160
  H        -5.8655401813        8.7777408348       25.1317680109
  H        -6.8020132759        9.1005956087       26.5507098066
  C        -7.3035673656       10.4088374219       24.9283481694
  C        -2.0519017367       16.4729488113       34.9007344301
  S         4.9346878519       10.2905480492       10.9610063819
  C         4.6062839049        7.2955364504       10.8963763568
  H         5.9945482236        8.1562355839       31.6505033741
  H         4.8029224851        7.3774605099       30.5207802004
  C         6.6936871345        6.8500112688       30.2136040537
  H        -6.9822212355       10.3235903369       23.8904624416
  H        -7.3847359510       11.4465752197       25.2506760286
  C        -8.7239996684        9.8612338025       25.1143179936
  H        -1.7132169282       17.5110395021       34.8485632814
  C        -2.5639462565       16.1330695925       36.1165897337
  H         5.2996436109        7.7087097819       10.1473494392
  H         5.0341442871        6.2970937771       11.1197518172
  C         3.2090104179        6.9911649553       10.3609070590
  H         7.5939696316        7.4126470499       30.0050690754
  H         6.3497849024        6.3395570520       29.3196984354
  C         7.0146396203        5.9518948896       31.3856535676
  H        -9.2387032370        9.9380289418       24.2460959821
  H        -8.5841319740        8.8203075365       25.1874132987
  C        -9.5340086980       10.3444701357       26.3410382316
  S        -3.0471245950       14.6275880210       36.6308316118
  C        -2.7651120444       17.2233695151       37.1655408032
  H         3.2497518920        6.0850564160        9.8061431149
  H         2.4558920064        6.7456647458       11.1125179701
  H         2.7625066917        7.7535676062        9.7688586553
  H         7.3995133878        5.0157616124       30.9865594222
  H         6.1435657406        5.8525388623       31.9672421562
  H         7.8019254116        6.4604737872       31.9334440353
  H       -10.5176637396        9.8697841844       26.4820737343
  H        -9.6751642628       11.3207047062       26.0149835149
  H        -8.8462787287       10.4035181045       27.2254861739
  C        -3.4285147446       15.3550760907       38.1768930297
  N        -3.3260341749       16.6985077858       38.2599772184
  O        -2.4157425193       18.3655079411       36.9878849754
  S        -3.9591509668       14.4267212098       39.6136671165
  C        -3.6548069613       17.5262349877       39.4202008414
  H        -3.9395149593       18.5739794349       39.1586685250
  H        -4.5490333111       17.0997038649       39.9199339672
  C        -2.5018105936       17.6027514351       40.3940391401
  H        -2.4875379347       18.5550766345       40.9221701063
  H        -2.4740202930       16.8226087208       41.1756371282
  H        -1.5502820405       17.4156139271       39.8444440455
  H         7.1378903142       11.5079834761        3.0017333673
  C         7.6762007791       10.5620410924        3.0635708286
  H         6.9387631631        9.8019662028        3.2580251094
  C         8.7475588587       10.5018936924        4.2216847909
  C         8.4419632643       10.3371541051        1.7682448465
  C         8.1666300227       10.6854140787        5.6234858396
  H         9.1934425617        9.5204823077        4.2730732391
  H         9.6249339129       11.1255914996        3.9988083674
  H         8.7506908031        9.3029039771        1.7593650743
  H         9.4387509400       10.8317443204        1.7328742146
  H         7.8822870320       10.5408410360        0.8420762269
  C         7.2745708341        9.4185707061        6.1207183831
  H         9.1230786086       10.7115498371        6.2718200946
  H         7.6872165689       11.5949978767        5.7462759592
  C         6.5980389514        9.7577557691        7.4529509797
  H         7.8345717646        8.4982684496        6.1862674966
  H         6.5112771786        9.2881654584        5.3698288855
  C         5.3408785367       10.6296772690        7.2632567155
  H         7.3334653169       10.3486734888        7.9825137924
  H         6.3184185647        8.8352545425        7.9734552300
  C         4.0232793176        9.8891689037        6.8099974277
  H         5.0662951214       11.1250811479        8.2326111422
  H         5.4559668792       11.4230566214        6.5246321102
  C         2.7882649684       10.7704423135        6.6900617976
  H         3.7739636776        9.1340550060        7.5000011085
  H         4.2992130304        9.3211331289        5.9236606180
  C         3.0630988031       12.2040897228        6.0162767394
  C         2.4357478255       11.5023065656        7.9599398162
  C         1.6384291831       10.1094444074        5.8693193312
  C         2.9581321250       13.3024006918        6.8509709520
  C         3.5237879786       12.5932373605        4.7392437045
  C         2.5808799083       12.8381746209        8.1147670381
  C         2.1320494383       10.8931559280        9.1997356702
  H         2.0231133479        9.5510686007        5.0479819841
  H         1.1304610132        9.4311763881        6.5699984081
  C         0.5631195677       11.0341373569        5.3239009362
  S         3.6460728311       14.7052844928        6.2617666761
  C         3.8932717079       13.8717115812        4.7410480889
  H         3.7897339252       11.8451104442        4.0174279982
  C         2.3471510678       13.4089902456        9.3337097790
  H         1.9042213844        9.8483206166        9.1280023902
  C         1.8431102005       11.5033431260       10.3945303652
  H         0.9659475511       11.5573678792        4.4830281720
  H         0.2863531202       11.7835403048        5.9768407009
  C        -0.7373848044       10.4009669904        4.8404558759
  C         4.4357024779       14.5245790233        3.5038242005
  C         1.9232219462       12.8336406978       10.5511944794
  H         2.5966679139       14.4693563463        9.4457868099
  C         1.4550333141       11.0387534214       11.5761300893
  H        -1.5088046399       11.1447909009        4.7215882301
  H        -1.3497077955        9.8512144060        5.5447032235
  C        -0.4003118908        9.6460008886        3.5248809774
  C         4.5080166924       15.8863289689        3.2618001643
  C         4.8355137076       13.6676931863        2.3359253886
  C         1.6531528844       13.4921812177       11.8964555648
  C         1.3305090054       12.0442346055       12.5064380358
  S         1.1961935883        9.4929187701       12.2731916748
  H        -0.0608066272        8.6910974177        3.7922585079
  H         0.3770164917       10.1633914394        3.0081723512
  C        -1.5446218131        9.6472872390        2.4881668989
  N         4.3308429138       16.8585953494        4.2113156937
  C         4.8392725066       16.4791898731        2.0337360217
  C         5.1631666005       14.1802873963        1.0900084114
  H         4.7195465687       12.5671858770        2.3986159433
  C         0.3819681187       14.4684863487       11.8770283503
  C         3.0191398106       13.9949075752       12.2669412382
  C         1.1880569777       11.5440038358       13.8023117969
  C         0.8972032000       10.2394655436       13.8476542527
  H        -2.3945950966        9.1241206686        2.8888263598
  H        -1.7244664582       10.7137001357        2.2283739884
  C        -1.1372643447        8.8280809562        1.3376549920
  S         4.5508373903       18.3234390987        3.5761242328
  N         4.7780171531       17.9061806057        2.0143496252
  C         5.1071509451       15.6482627398        0.9183455175
  H         5.3608532335       13.5380075599        0.2585182178
  H         0.4577410080       15.4015247666       11.2018923025
  H         0.2453729865       14.6448006218       12.9582197022
  C        -0.9367667740       13.6952957063       11.4660467167
  H         3.7393573548       13.2380303519       11.8159218601
  H         3.3105229758       14.9743523054       11.8885884225
  C         3.2582436886       14.1782741725       13.7374555042
  H         1.1359066663       12.3269249472       14.6086284997
  C         0.3795281459        9.4506410373       15.0166398681
  H        -2.1022096129        8.6290864744        0.8960435574
  H        -0.6687899701        7.8492182538        1.6430873144
  C        -0.0877632436        9.4915696465        0.4015002280
  C         5.4268440572       16.2833204232       -0.3078495471
  H        -0.6375068223       13.1033935922       10.5360447217
  H        -1.2864528894       12.8619696929       12.1305730004
  C        -2.1434611215       14.5328898821       11.0496585612
  H         3.1691540246       13.2044379471       14.1767672215
  H         2.4025435512       14.6943973087       14.1253345504
  C         4.4722493442       14.9121900528       14.2013602336
  C         0.4065415405        8.0356476505       15.1716088288
  C         0.1179346507       10.1497355888       16.2812946605
  H         0.0063563608       10.5458260894        0.7299866573
  H         0.8714696126        8.9853586673        0.5352160266
  C        -0.6545554139        9.6287777266       -1.0574049537
  H         5.7210884997       17.3533496376       -0.2765705944
  C         5.7863933448       15.8112735407       -1.5642637939
  H        -1.8473158336       15.2482540087       10.2569715474
  H        -2.6710384968       15.1258350558       11.7816697934
  C        -3.1359013431       13.5824709820       10.4601105255
  H         4.7655873630       15.7347525456       13.4986763650
  H         4.3349072939       15.3368640227       15.2186480343
  C         5.6006400143       13.9067530144       14.2374088346
  N         0.6979032972        7.2117227629       14.0875892298
  C         0.0600485130        7.3835290118       16.2905452908
  C        -0.3265176319        9.5277754186       17.4520926157
  H         0.0748386877       11.2187468409       16.2164795534
  H        -1.5032153164       10.3797430318       -1.1290729662
  H        -0.9642633319        8.7035378346       -1.5095539946
  H         0.1767091078       10.0445819040       -1.6366173383
  S         6.0899559279       14.2282647311       -1.9912734454
  C         5.8529448986       16.8548809141       -2.6338903413
  H        -2.6805441558       13.0903689482        9.5997051474
  H        -3.3409019018       12.8823587036       11.2303792538
  C        -4.3746950459       14.3045222353        9.8681066483
  H         5.3245711063       13.2539449734       13.4045428371
  H         5.5438918703       13.3231313797       15.1756425161
  C         6.9892261327       14.5321882821       14.0027787943
  S         0.6608313656        5.6742507432       14.6952552604
  N         0.1032161881        6.0475582394       16.1968725474
  C        -0.3250954488        8.0681905482       17.4972440794
  H        -0.5653044867       10.1558792216       18.3317677907
  C         6.1412117648       14.9243787270       -3.5711687714
  N         6.0815105096       16.2531564199       -3.7565189546
  O         5.6667342340       18.0878311543       -2.4686108259
  H        -4.9351605356       14.9247466088       10.6262041371
  H        -4.0752361293       15.0301061156        9.0995354488
  C        -5.2824163858       13.2857234646        9.1682827485
  H         7.8218006311       13.8082973904       14.0259898983
  H         6.9448967211       14.9306388515       13.0188922123
  C         7.3429670518       15.6301367525       15.0123080763
  C        -0.7293005938        7.2913808678       18.6286428645
  S         6.3410331655       14.0802136416       -5.0997731179
  C         5.9969007395       16.9468244796       -5.1061810008
  H        -4.8813427282       12.9443339644        8.2038624284
  H        -5.3007152267       12.3314773434        9.7219313169
  C        -6.7402877722       13.7744973113        8.8303108285
  H         7.6129488720       15.0704293772       15.9323813988
  H         6.4338095766       16.2054458380       15.2819070578
  C         8.3957762162       16.6590642219       14.5341631648
  H        -0.6959254687        6.1970226322       18.4733904716
  C        -1.1256018531        7.5919748048       19.8921681798
  H         6.8390019187       16.8645831653       -5.8225492323
  H         5.9635674465       17.9858054653       -5.0023745345
  C         4.7607869267       16.6885689253       -5.8932429260
  H        -7.1578415233       13.2573198900        8.0143543623
  H        -6.8349458987       14.8562292206        8.4413147896
  C        -7.6199362333       13.6086572277        9.9989285492
  H         8.8983749492       17.0345244028       15.3854446540
  H         9.1339222513       16.0663721403       13.9657160363
  C         7.8651989032       17.8324354212       13.7529969002
  S        -1.4515247448        9.1575785570       20.4982976442
  C        -1.1366446051        6.4648768819       20.9307685680
  H         4.3656703295       17.6555557682       -6.3206455741
  H         3.9364456318       16.2355526918       -5.3347472883
  H         4.9756694123       16.0580752242       -6.7230379843
  H        -8.6841267631       13.7232511520        9.8462337669
  H        -7.5917145196       12.5704223690       10.4359464285
  H        -7.3954460276       14.3673826961       10.7658365137
  H         8.7096333615       18.4594465195       13.4520202714
  H         7.4643187802       17.6143612641       12.8169722452
  H         7.0829746620       18.2437172203       14.3710058807
  C        -1.7753371777        8.3581438666       22.0213027477
  N        -1.6497179426        6.9885000367       22.0213872784
  O        -0.6688441617        5.2896610713       20.8277679279
  S        -1.9097224940        9.1024931178       23.6099614808
  C        -1.7306855284        6.2311729040       23.2846797721
  H        -1.9201261081        5.1724576263       23.0450756121
  H        -2.5424429193        6.3809795043       23.9603700681
  C        -0.4289585721        6.1840037883       24.0820125118
  H         0.3133201000        6.9381453396       23.7639299991
  H        -0.0787642671        5.2410185358       23.8599693810
  H        -0.5668696081        6.2365259932       25.1495670894
