352
i =
  H        -3.7779237059       14.2312158519       16.3781930043
  C        -3.0052070887       13.4941124302       16.5310989284
  H        -3.5297110891       12.6783513888       17.0814424332
  C        -1.8203542129       14.0947389428       17.2259028241
  C        -2.4355224000       12.9294874226       15.2218910837
  C        -2.0338693086       14.1294361659       18.7557454552
  H        -0.9479818849       13.5426130816       16.9983726328
  H        -1.7040103829       15.0899296312       16.9184721321
  H        -1.8656840684       11.9985528459       15.4087454945
  H        -3.2424460611       12.7450688772       14.5314784116
  H        -1.7787601777       13.7007992050       14.7645539329
  C        -1.5618881360       12.9183032207       19.5174278750
  H        -3.1046400815       14.1025318108       18.9581075828
  H        -1.7332850221       15.0864241585       19.2131359931
  C        -1.8830804306       12.9006267044       21.0152643628
  H        -1.8705071975       12.0974467174       18.9449110444
  H        -0.5041305927       12.8564203562       19.4425382846
  C        -0.7228055372       12.4475501468       22.0208311638
  H        -2.7188357836       12.2901456438       21.1646286102
  H        -2.2932138889       13.8869016371       21.2667614273
  C         0.4356892388       13.4072130358       22.3226599944
  H        -1.2350682492       12.1160413620       22.9827844385
  H        -0.3863264978       11.4615250179       21.7177000915
  C         1.6852573583       12.8926115006       23.1739425087
  H         0.9567931836       13.7745908888       21.4488539015
  H         0.0567559280       14.3267495248       22.8494741095
  C         2.0834472289       11.5871375526       22.5302912471
  C         1.1724597879       12.2277491574       24.4663654973
  C         2.9027155829       13.8921180502       23.2651421361
  C         1.7145020062       10.4943044201       23.3138707442
  C         2.6993795168       11.2716417098       21.3204488748
  C         1.1113515179       10.8604460331       24.5047432794
  C         0.6862314657       12.8906481799       25.5624328087
  H         3.1721548126       14.2477745059       22.2579771225
  H         2.3797643849       14.8211694528       23.6560222716
  C         4.1140995272       13.4441857393       24.0917513260
  S         2.1745306986        9.0359495355       22.4989819601
  C         2.6112356192        9.9032526145       21.0885725850
  H         3.0424056360       12.0882256818       20.6123851984
  C         0.5728513506       10.2535042005       25.6314252045
  H         0.6645645395       13.9511465479       25.6120302869
  C         0.2972201177       12.2520671560       26.6890564085
  H         4.5103450888       12.5983504545       23.4677868424
  H         3.8342525329       12.9651062019       24.9984977620
  C         5.1880373615       14.4714749567       24.2908847102
  C         2.7493261597        9.2327436067       19.7870350300
  C         0.1898215412       10.9024931990       26.7571816510
  H         0.6379762575        9.1774691378       25.6926928746
  C        -0.1484163191       12.6515428616       27.9405070143
  H         6.0443981879       14.0286877273       24.7687515731
  H         4.7690961341       15.2440953680       24.9593775106
  C         5.8468399355       15.1684415403       23.1094160745
  C         2.6340242863        7.7902949190       19.5453892950
  C         3.1280770934       10.1118702848       18.6199628430
  C        -0.2542778167       10.2576446624       28.0369835346
  C        -0.5377479247       11.5544635545       28.7317786154
  S        -0.3492213366       14.1682253774       28.6374140891
  H         6.4147071924       15.9770612791       23.6113911901
  H         4.9924983949       15.5558050590       22.5596039589
  C         6.8144870036       14.2559210918       22.3068123698
  N         2.2750531492        6.7996907929       20.4655659914
  C         2.8639238695        7.2397326645       18.2901413343
  C         3.3140375020        9.5001014981       17.3185640787
  H         3.2669468282       11.1455365745       18.6955692980
  C         0.8643710695        9.4225823100       28.6361812224
  C        -1.5287436445        9.3642056495       27.9972681163
  C        -0.8962377364       11.9984027559       30.0057356651
  C        -1.0329194669       13.3921847453       30.0402133953
  H         7.6305847207       14.8301470369       22.0035750360
  H         7.0873102644       13.3227900891       22.8260822818
  C         6.1980768845       13.8157272123       21.0061193427
  S         2.2539931043        5.3370271853       19.7839907047
  N         2.7142307157        5.8251711378       18.2681734595
  C         3.2627997427        7.9743717183       17.1402648083
  H         3.4265014856       10.1192476455       16.4688371895
  H         1.4319949320        8.8116590554       27.8851319325
  H         0.5473958811        8.8744916083       29.5235032337
  C         1.9912426604       10.2796951946       29.3071370338
  H        -1.4348780939        8.4872711492       27.4427150300
  H        -1.6404273783        8.9637908836       28.9811209177
  C        -2.8814211470       10.0773376180       27.7446077229
  H        -1.3017660284       11.3028516844       30.6848454663
  C        -1.3768421585       14.1884280200       31.2461125233
  H         5.8706497173       14.6322489763       20.3595095133
  H         5.2559564338       13.2418454133       21.1144647404
  C         7.1435719251       12.9449830226       20.2707156482
  C         3.4021286896        7.3039792376       15.8993946947
  H         2.3057864467       11.1342840876       28.7134755639
  H         1.6728489116       10.5584570676       30.2670180339
  C         3.2377349499        9.3871083250       29.7526913690
  H        -2.8660847222       10.6443143544       26.7796979592
  H        -3.0726957714       10.9061438796       28.5156889398
  C        -4.1405543883        9.1933830969       27.8352104631
  C        -1.4326075522       15.5835709511       31.2482028300
  C        -1.5560781248       13.4755959059       32.5383174259
  H         8.0590638081       12.7750404501       20.8075583679
  H         6.6576454599       12.0024436158       20.1056387903
  C         7.5776428296       13.6067589797       18.9744196032
  H         3.1379943019        6.2736167599       15.8792960531
  C         3.7509702925        7.8143299566       14.6651794225
  H         3.4595730270        8.5987591499       29.0240932098
  H         2.9001237768        8.9799005248       30.6561905075
  C         4.4521417759       10.2314357180       30.2297951950
  H        -4.1715558527        8.3685351282       27.1130176929
  H        -4.2111233479        8.7810651173       28.8996933925
  C        -5.4060003517        9.9778568197       27.6694251272
  N        -1.0943969290       16.4173125765       30.1691820902
  C        -1.6555487766       16.2866779741       32.3792944214
  C        -1.7820874757       14.2515032561       33.6796269838
  H        -1.4631058689       12.3931741370       32.7483416216
  H         6.7861284422       13.5037203067       18.2366025323
  H         7.8551021739       14.6217928132       19.0377966596
  H         8.5033859350       13.2374187829       18.6348151319
  S         4.1548753778        9.3566370458       14.2161438960
  C         3.6426709604        6.8305533281       13.5672072826
  H         4.4379750431       11.0808059568       29.5578186735
  H         4.3071500920       10.6737862145       31.1942822105
  C         5.8540583188        9.5223682929       29.9877268998
  H        -5.0683784504       10.9952681161       27.4111227094
  H        -5.9329538461       10.1249485734       28.5908664240
  C        -6.1879691538        9.4908137833       26.4650151547
  S        -1.2666918356       17.9635915401       30.6440542002
  N        -1.7089211065       17.6658527225       32.1439000579
  C        -1.8630649607       15.7394180558       33.6595064982
  H        -1.9432446628       13.6947012064       34.5431149372
  C         4.3020897917        8.7286328703       12.5076659593
  N         4.1050446177        7.3928791367       12.4379349409
  O         3.1544707769        5.7060127445       13.6607434809
  H         6.6921140207       10.2120724579       30.0805111734
  H         5.8777643724        9.0979484350       28.9859356891
  C         6.0530228629        8.3544362486       31.0441970935
  H        -5.5447279098        9.2380160982       25.6478521510
  H        -6.6426070011        8.5328764787       26.7277866411
  C        -7.1796147623       10.4810768501       25.8518899609
  C        -2.0669201869       16.6643908594       34.7511908044
  S         4.8846258999        9.5816294000       11.0749899468
  C         4.1712328087        6.7151489056       11.1141177450
  H         6.2184580165        8.8657711125       32.0210300366
  H         5.0493779034        7.9261347700       31.1585973783
  C         7.1270165746        7.3564162268       30.6451222956
  H        -6.8448196048       10.6863561424       24.8331731554
  H        -7.1647534695       11.4124313259       26.3717637223
  C        -8.5731193496        9.8737947186       25.6518302889
  H        -1.7612726023       17.6791114196       34.5610292637
  C        -2.5845917855       16.4960784957       35.9920578227
  H         5.0806090562        6.9843268406       10.5249180235
  H         4.2939529555        5.7060452550       11.4166926081
  C         2.9082192636        6.7176930166       10.2770740304
  H         8.0775797021        7.4483939795       31.2026942474
  H         7.3597203746        7.4363847800       29.5401188329
  C         6.7768115464        5.9665055355       31.0681859657
  H        -9.0634819002       10.0853887163       24.6586274176
  H        -8.3478058559        8.8425981431       25.6254070391
  C        -9.5570098400       10.1465362243       26.7871115650
  S        -3.0218064465       14.9708534861       36.6682599992
  C        -2.8316557544       17.7093834820       36.8402942210
  H         2.6135092702        5.7001701977        9.9731279861
  H         2.0592921059        7.1392156245       10.8266575169
  H         3.0308402586        7.2975359891        9.3795368818
  H         5.9217285676        5.5982583969       30.5648962905
  H         6.6532796606        5.9092798717       32.1625818123
  H         7.6513974268        5.3456932541       30.6385227878
  H        -9.9845870123       11.1602204238       26.7373853900
  H        -9.0850637339       10.0167314390       27.7742366494
  H       -10.3892926076        9.4986633712       26.8777559367
  C        -3.3275514980       15.9267823206       38.1296397088
  N        -3.4009735021       17.2874102892       37.9880387357
  O        -2.6239318026       18.8247624422       36.4462356439
  S        -4.1767658610       15.2943836568       39.5285380907
  C        -3.7986973972       18.2663048817       39.0674994754
  H        -4.2755117650       19.1990600490       38.6806975378
  H        -4.5960483369       17.9043541204       39.6297446481
  C        -2.5803857722       18.6670687571       39.8843272007
  H        -2.6388164037       19.6683295240       40.3650659812
  H        -2.3760617617       17.9248154005       40.6692963871
  H        -1.7320497628       18.6838013729       39.2160573763
  H         7.6699596731       10.6837254731        3.1757296154
  C         8.2347228544        9.7899563515        3.2133829823
  H         7.5947074769        8.8794733457        3.1758082757
  C         9.1964263324        9.8807289490        4.3484153074
  C         8.9968388455        9.7276929082        1.8805740875
  C         8.5163103757       10.0818562948        5.7379755404
  H         9.7986674829        8.9531916508        4.2354388568
  H         9.8036554180       10.7940109022        4.1605408539
  H         8.5254511743       10.3127475001        1.0275955213
  H         9.0820669523        8.6583714872        1.6623874770
  H        10.0951943799       10.0362220507        2.0729283323
  C         7.7046549011        8.8954733323        6.2475815843
  H         9.1891153894       10.3453176530        6.5075995997
  H         7.8592332949       10.9467415529        5.5501171028
  C         6.9602837321        9.2609659350        7.5103798440
  H         8.2297660432        8.0488206272        6.5930056458
  H         6.8867071371        8.5205773515        5.5345922612
  C         5.8093599668       10.2528438030        7.2782045121
  H         7.6577267072        9.6995879043        8.3035545015
  H         6.6054663688        8.3296977886        7.9458744335
  C         4.3983149545        9.5815684438        6.9946264648
  H         5.6510146300       10.7982174330        8.2056600834
  H         6.0439125849       11.0245408363        6.5890667415
  C         3.1207627124       10.5187567002        6.8970594410
  H         4.2042939356        8.6710907186        7.6522242606
  H         4.4811819980        9.1385508493        6.0048922687
  C         3.5354473189       11.8653178647        6.2610366238
  C         2.6875645373       11.2244141316        8.1524123163
  C         1.9604339357        9.8063670189        6.1718010665
  C         3.2340801393       12.9553658956        7.0770860214
  C         4.0245979461       12.3035155287        5.0333620481
  C         2.7337895418       12.5734483136        8.2685323461
  C         2.1431296976       10.5245320405        9.2104338312
  H         2.3890910280        9.5829490811        5.2002563146
  H         1.7587446088        8.8801077541        6.6840351878
  C         0.6661394055       10.6730879279        5.8265516459
  S         3.5198252074       14.5193038536        6.3282437688
  C         3.9629726154       13.6741844340        4.8684109405
  H         4.2963821131       11.5740246004        4.3383172658
  C         2.3164191695       13.1337822593        9.4392259410
  H         2.0603937987        9.4812576898        9.2451857196
  C         1.7727789098       11.1029158494       10.3474784536
  H         1.0102392382       11.6788925025        5.4237981600
  H         0.0620087739       10.7749025064        6.6997407653
  C        -0.3065348182       10.0019314320        4.8632419011
  C         4.3978834098       14.4028743145        3.6562633654
  C         1.8431111257       12.4730288795       10.5579545371
  H         2.3838831513       14.2693302475        9.4649520765
  C         1.3567386570       10.6409540054       11.6050345357
  H        -1.3699347339       10.1219933703        5.1273195189
  H        -0.0041732063        8.9848399122        4.8206353616
  C        -0.0408205325       10.4197087930        3.4230798029
  C         4.3687306828       15.7785529626        3.4904438379
  C         4.7167564055       13.6409826227        2.4678119149
  C         1.4159243303       13.0536345836       11.8872136847
  C         1.1590880198       11.6884539737       12.5110191896
  S         0.9970086749        9.1240604524       12.3583089204
  H         0.9546605290       10.1087432125        3.1530352244
  H        -0.0221855482       11.5520489901        3.4108076542
  C        -1.0701934040        9.9897013494        2.4344931558
  N         4.1491993703       16.7364038480        4.4741933391
  C         4.6386577166       16.3751498560        2.2501550042
  C         5.0193614709       14.2341015321        1.2718870863
  H         4.8543992128       12.5702577001        2.4961545395
  C         0.0873761755       13.8641324363       11.7091125120
  C         2.4224107093       13.9047124934       12.7259775565
  C         0.7120561589       11.2278381432       13.7447264061
  C         0.6959856147        9.8321979896       13.8736231654
  H        -1.6866408996        9.1882116647        2.7839438750
  H        -1.7928618986       10.8187869863        2.3198295261
  C        -0.5100307740        9.5960558100        1.0583193348
  S         4.2758797180       18.2166292480        3.8365333157
  N         4.3916241720       17.7256291557        2.2589911615
  C         4.9718740122       15.6414368667        1.0661508649
  H         5.2580920361       13.6283923115        0.4303237350
  H         0.1560802806       14.6597039970       11.0038941892
  H        -0.1474543581       14.4224429208       12.6395092318
  C        -1.0742923309       12.9655254929       11.3120434906
  H         2.8913391500       14.6382772866       12.0890073092
  H         1.8196575989       14.5460384531       13.3761049142
  C         3.4389237346       13.1093421876       13.5730451119
  H         0.4531389233       11.8720357980       14.5354571536
  C         0.2979459559        9.1097465152       15.1193588726
  H        -0.8812250209        8.6248669085        0.7845527039
  H         0.5562473500        9.6552969255        0.9931618534
  C        -1.0183390082       10.6340367546       -0.0754365066
  C         5.1739258497       16.3399481225       -0.1292753358
  H        -0.8464493114       12.5850062622       10.2829873974
  H        -1.2805262799       12.1227085236       11.9891471379
  C        -2.3548991003       13.7663656496       11.1577178639
  H         4.0319959617       12.3834743340       12.9860066668
  H         2.9386660346       12.5689111160       14.3470452619
  C         4.3957777403       14.1094619320       14.3545291616
  C         0.1267820208        7.7352408383       15.3113399373
  C         0.1547137721        9.9276988582       16.3327096385
  H        -2.0938083556       10.7789353680        0.0384598268
  H        -0.6002715428       11.6608096344        0.1349533423
  C        -0.6554676132        9.9962012592       -1.4211627121
  H         4.9941102756       17.3644954235       -0.0483258885
  C         5.5460364416       16.0274144300       -1.3673511158
  H        -2.2680976018       14.5008198275       10.3395802073
  H        -2.6029121862       14.3058920635       12.0870307709
  C        -3.5478417492       12.8656026858       10.7133689669
  H         4.4765133009       15.0699698956       13.8110379459
  H         3.9894323486       14.3852347945       15.3122179190
  C         5.7639009721       13.4181994632       14.5055073263
  N         0.2838026008        6.8053309453       14.2691686663
  C        -0.0553631014        7.1403295552       16.5667291179
  C        -0.2616937731        9.4201362797       17.5269671688
  H         0.4045311158       10.9746516283       16.2615253623
  H        -1.0329706194       10.6842619808       -2.2150162759
  H        -1.1719702333        9.0667424467       -1.4938537172
  H         0.4212508251        9.8396261664       -1.6711915295
  S         5.9236405267       14.4207439837       -1.9119657516
  C         5.4868814328       17.0568910586       -2.4476628801
  H        -3.1370796363       12.1616646693       10.0067907497
  H        -3.9082905075       12.3199220873       11.6121823420
  C        -4.7296486251       13.5612740233       10.1282917921
  H         5.8599848723       12.6036041776       13.8655530625
  H         5.9438798747       12.9921373260       15.4873439684
  C         6.9625716788       14.3441119988       14.3282720018
  S         0.3884804353        5.3183577449       14.9851928007
  N        -0.0343948768        5.6995607407       16.4999123760
  C        -0.3376228825        7.9451799789       17.6838387326
  H        -0.3153001411       10.0682889800       18.4208906676
  C         5.9818442128       15.1718310193       -3.4513435304
  N         5.5975446768       16.4306426501       -3.6158374536
  O         5.1556158908       18.2712496215       -2.2954472113
  H        -5.3243311236       13.8837665246       10.9658289945
  H        -4.3942371571       14.4990510288        9.7206660780
  C        -5.4805112176       12.6771274633        9.0749936214
  H         7.8272900477       13.7332570670       14.2140211247
  H         7.0013474595       14.9382174354       13.4291597638
  C         7.0159077003       15.3853829923       15.4463727195
  C        -0.6853450403        7.2143717001       18.8498254440
  S         6.4820240619       14.2139491001       -4.8583241574
  C         5.4594432793       17.1356393125       -4.9647100402
  H        -4.7643763216       12.4068670184        8.3117387147
  H        -5.7650181560       11.6681238957        9.4135300782
  C        -6.7041394114       13.4765291943        8.5839293040
  H         7.4511758539       14.8879287463       16.3710061422
  H         5.9793287997       15.7682599893       15.7280262679
  C         8.1393249471       16.4464404371       15.1946688933
  H        -0.6361422441        6.1589051523       18.7289220475
  C        -1.2641981069        7.5117823235       20.0720353633
  H         5.8998266386       16.6604951289       -5.8384858845
  H         6.0070139010       18.0089929614       -4.9255638631
  C         4.1008560495       17.6305308432       -5.3368870567
  H        -7.1478599016       12.9742129680        7.7364881329
  H        -6.4583754747       14.4732111169        8.4136999827
  C        -7.8589774672       13.6565820301        9.6257350798
  H         8.3798607822       16.9442232959       16.1062216109
  H         9.0832546443       16.0639618917       14.9481277548
  C         7.6141053440       17.4580912495       14.0358058307
  S        -1.8123959575        9.0437449395       20.5659732489
  C        -1.3503881866        6.3644014774       21.0601727029
  H         3.4689491521       16.7618104151       -5.5339557446
  H         4.0960147400       18.2353296628       -6.2997851987
  H         3.5081748644       18.1220864153       -4.4537815646
  H        -8.7850733393       14.1225320617        9.1420212898
  H        -8.1888491779       12.7498493299       10.1477345437
  H        -7.6538275440       14.4024121476       10.4992420115
  H         8.3428747037       18.2572634293       13.9767381277
  H         7.4641871569       16.9429958035       13.0880196686
  H         6.7018965120       17.8731540350       14.3102628333
  C        -2.1472164432        8.2670750686       22.0966616700
  N        -1.9668209544        6.9006561431       22.1083219716
  O        -0.9851765690        5.2130895290       20.9343954332
  S        -2.4996729862        9.1395607036       23.5933643621
  C        -2.0141800295        6.1582532669       23.3889454241
  H        -2.1045926474        5.1265820863       23.1705426486
  H        -2.9645591243        6.4491738744       23.9052847630
  C        -0.6900998286        6.2192811031       24.1177471894
  H        -0.8007469315        6.7553874878       25.0187948952
  H         0.1198583122        6.6130017367       23.4719036262
  H        -0.4247936790        5.1967241057       24.4300382390
