352
i =
  H        -3.7695571895       14.3942277248       16.3224284477
  C        -3.1624726194       13.4525169188       16.4537138495
  H        -3.7454953219       12.8690620420       17.1673446544
  C        -1.8017619913       13.9639004088       17.1250905201
  C        -2.7142523614       12.8286566963       15.0910479543
  C        -2.0728259028       14.2284854950       18.6260373909
  H        -0.8544324538       13.4406402874       17.1473253323
  H        -1.6385268030       14.8892820994       16.6129603388
  H        -2.0152853298       11.9712550084       15.2388453134
  H        -3.5679232794       12.3408509878       14.4880125218
  H        -2.2081658384       13.5438986580       14.4862318574
  C        -1.6878470201       13.0705313123       19.6248237649
  H        -3.0535331398       14.2966122884       18.7737281726
  H        -1.5288632360       15.0964485325       18.9594661150
  C        -2.3970217920       13.2851920892       20.9646766234
  H        -1.9709760280       12.0215509316       19.2636283780
  H        -0.6303622236       13.1080064616       19.6569372886
  C        -1.5454695540       12.7358595369       22.0777395159
  H        -3.4971765635       13.0467179534       21.0927603176
  H        -2.3803575139       14.4117789914       21.1079834690
  C        -0.3926548239       13.5867116190       22.5212268528
  H        -2.0029331323       12.3518523344       22.9612610874
  H        -1.1710204662       11.8458434681       21.7157435274
  C         0.8616517265       12.9666933968       23.2187988289
  H         0.0431560097       14.3453132688       21.8280732186
  H        -0.8870182513       14.0329514941       23.3901307176
  C         1.2867724758       11.5981034461       22.5700871744
  C         0.5404444525       12.3073275617       24.4919944566
  C         2.0509089919       14.0727485013       23.3293499386
  C         1.0891303905       10.5142950913       23.4107150641
  C         1.7427254384       11.2964492220       21.3473633701
  C         0.7242919274       10.9461183764       24.7198119865
  C         0.1322286674       13.0083572292       25.6592008243
  H         2.1641361935       14.6860181777       22.3758895795
  H         1.6913436055       14.6719099625       24.0602452806
  C         3.3909161513       13.4119396555       23.6720876989
  S         1.4857049135        9.0114399089       22.6230755297
  C         1.9701546886        9.9287186270       21.1992788523
  H         1.7992413932       12.0629731835       20.6388658548
  C         0.4398536620       10.3562898736       25.8791796350
  H        -0.0899458966       14.0849002365       25.5603123421
  C        -0.0630029996       12.4016805742       26.8955000976
  H         3.6749939988       12.5210373253       22.9957784589
  H         3.2403610913       12.9906573062       24.5951503124
  C         4.5818240740       14.3703089626       24.0695740600
  C         2.4311647721        9.1922885344       19.9903276991
  C         0.0289401170       11.0168591646       27.0176259183
  H         0.6518259955        9.3220590506       25.9435172818
  C        -0.4845666811       12.7892483910       28.1522083027
  H         5.1842108408       14.0086252956       24.8618201981
  H         4.2190878009       15.3978689921       24.2486157148
  C         5.4663202413       14.4976527814       22.7924779541
  C         2.5945696826        7.7742252717       19.7739241827
  C         2.5984313808       10.0108402762       18.8310777836
  C        -0.3132738612       10.3187101352       28.2870021279
  C        -0.6327792130       11.7017497715       28.9615870429
  S        -0.8188705836       14.2996044841       28.9212771029
  H         6.0269811062       15.5044611815       22.7598592355
  H         4.7553626162       14.5824739904       21.9841864390
  C         6.3812279046       13.2984876259       22.4233595549
  N         2.4267682847        6.7564060688       20.7715650807
  C         2.7856590699        7.1866162950       18.5442592169
  C         2.9943950327        9.3855410360       17.6550126137
  H         2.7421567015       11.0372576239       18.9167629967
  C         0.8545810185        9.5405265596       29.0260498956
  C        -1.6732585203        9.4847274796       28.1605281060
  C        -1.1599978565       12.1181562144       30.1776307945
  C        -1.3427331732       13.5048507678       30.2711352667
  H         6.8196181152       12.7802461199       23.3037249296
  H         5.7541469562       12.5039714601       21.9823002579
  C         7.3601235869       13.4827232759       21.2325319600
  S         2.4373431623        5.3233749307       19.9760892548
  N         2.7775505835        5.7885989806       18.4719683823
  C         3.1709104842        7.9321010762       17.4787848478
  H         3.1880738438       10.0388826568       16.8493035888
  H         1.3443126492        8.9769069706       28.3192702266
  H         0.3620043139        8.9759188015       29.7779435228
  C         1.8888843821       10.4470676226       29.6368986861
  H        -1.5315188435        8.5950017705       27.6051648293
  H        -1.7838876270        9.2737810442       29.1974338609
  C        -2.8808829943       10.3894763634       27.7428676459
  H        -1.3168727200       11.4233634492       30.9141114315
  C        -1.6950711643       14.2109675337       31.6094488449
  H         8.2106043025       12.7740951446       21.0730540854
  H         7.8486849177       14.3996993185       21.1619883678
  C         6.4293942129       13.3839484007       20.0071191353
  C         3.4259268048        7.2665362353       16.2142084074
  H         2.3475243021       10.9320424363       28.7496468531
  H         1.6199624350       11.2032869160       30.4856834290
  C         3.0261970923        9.6423038510       30.2207715371
  H        -2.6059349387       10.8751241347       26.7650105563
  H        -3.1020021722       11.2763846653       28.2656891739
  C        -4.1401755581        9.4688699988       27.4278685696
  C        -1.6983586514       15.6418040780       31.8009842301
  C        -1.9342576008       13.4021661326       32.7781813524
  H         5.8533411123       12.4170351801       19.8887481833
  H         5.6819278641       14.2110998613       20.0850518306
  C         7.3622839967       13.4174253306       18.8102040057
  H         3.6893989583        6.2194378365       16.3999281963
  C         3.7239665012        7.7240754581       14.9325097928
  H         3.2842741534        8.7568587514       29.6393274718
  H         2.6060792830        9.3222385056       31.2139631886
  C         4.2208888906       10.5171372299       30.5688402632
  H        -3.9221004809        8.6160452883       26.7635697990
  H        -4.3531265549        9.0093527044       28.4145371301
  C        -5.3751556152       10.3505085456       27.2709023142
  N        -1.5099022306       16.5872935905       30.8116416086
  C        -1.8832643071       16.2263455625       33.0622909279
  C        -2.1566531141       13.9711392397       34.0283711659
  H        -1.9596848650       12.3477351688       32.7521257083
  H         7.9014666953       14.2584602549       18.7282184012
  H         7.9732174342       12.6056999888       18.9587262307
  H         6.7804583082       13.1837427301       17.9246227919
  S         3.7834362132        9.3855164397       14.4181591999
  C         3.8392899509        6.7264305380       13.8785799920
  H         4.4643824613       11.1434939541       29.7980180858
  H         3.9873400488       11.0831375171       31.4467536254
  C         5.5891535922        9.7528945795       30.6755631563
  H        -5.1609807702       11.0920454768       26.4317107102
  H        -5.5592975148       10.9376511631       28.1681754405
  C        -6.5967958824        9.4875371957       26.8518202455
  S        -1.4487396079       18.0041866425       31.4562250157
  N        -1.7449025806       17.6096972440       33.0316744130
  C        -2.2025259218       15.4590095414       34.2360528374
  H        -2.1808041463       13.4703762921       34.8823070873
  C         3.9860985893        8.7285110919       12.7648450845
  N         4.1674587037        7.4552926128       12.7083155639
  O         3.6876889214        5.5194230432       14.0451333037
  H         6.2278905887       10.4481612819       31.1295551463
  H         6.0521552156        9.6451144496       29.6240141526
  C         5.7010623893        8.3824786263       31.3664596561
  H        -6.2198521435        8.9221041852       26.0447821549
  H        -7.0301653541        8.9264493407       27.6437690549
  C        -7.4894238297       10.4855092588       26.0779197727
  C        -2.4474809866       16.1786926047       35.4920489974
  S         4.4598683566        9.6021089875       11.2851428399
  C         4.3183106972        6.5079735478       11.5757634552
  H         6.3888504299        8.2835103246       32.2222947679
  H         4.8058658962        8.1005426117       31.9848211449
  C         5.8615860859        7.1068274387       30.4437202084
  H        -7.3741040203       10.4074676602       25.0420374177
  H        -7.4075575659       11.5125160160       26.4504979935
  C        -8.9453450759       10.0482848136       26.0076594678
  H        -2.1738979730       17.2103359546       35.5160510170
  C        -3.0285916244       15.7413539985       36.6457311632
  H         4.9266776574        6.9226328142       10.7849410618
  H         4.7453580720        5.5460274853       11.8043028876
  C         3.0004341768        6.3556823330       10.8349837853
  H         6.7963635721        7.1319099367       29.7611671589
  H         4.9993574560        6.9469986508       29.8154909877
  C         5.9886757485        5.8118477711       31.2680919313
  H        -9.4738016213       10.2356714865       24.9821213098
  H        -8.9378745413        8.9991734258       26.1356123785
  C        -9.7289135472       10.6210662634       27.1666125219
  S        -3.7742248150       14.2936603736       36.9148358635
  C        -3.1573628861       16.7586563146       37.7674211341
  H         2.6335173665        7.2923359996       10.6672609743
  H         3.0633819874        5.7539525396       10.0061656199
  H         2.1991482657        6.0583649668       11.4371714618
  H         4.9912382565        5.2981337930       31.5053683585
  H         6.3670661764        6.0031147788       32.3137460784
  H         6.7336936620        5.1021798379       30.7804043484
  H       -10.1187446576       11.5956280023       26.8917620682
  H        -9.1836626103       10.6532952474       28.1125038086
  H       -10.6234748553        9.9909066546       27.3497643457
  C        -4.0179652510       14.8632935171       38.6210024034
  N        -3.8336318197       16.1822715196       38.7452664977
  O        -2.6864572407       17.8817298744       37.7129186968
  S        -5.0796319656       14.0417751197       39.7323299104
  C        -4.0012706483       17.0892603616       39.8952462683
  H        -4.1665012787       18.1580965295       39.5745158710
  H        -4.9354567824       16.7131228287       40.2799345398
  C        -2.8915343513       16.9145806450       40.8915087550
  H        -3.3437368367       16.7123469117       41.8395896778
  H        -2.2028042682       16.0006208376       40.7985311190
  H        -2.2707657374       17.6935075605       41.0595284912
  H         7.3545947269       11.3865831044        3.6171554078
  C         7.6859736640       10.4360405334        3.6625864421
  H         6.9474512320        9.6780105812        3.7564116106
  C         8.6025452387       10.1999682743        4.8244770562
  C         8.5268073131       10.0698320743        2.4149911585
  C         7.7333150261       10.2891911622        6.1038656646
  H         8.8912303413        9.1467019037        4.6891075251
  H         9.4249138307       11.0217286196        4.9759561743
  H         7.9839446449        9.8515157537        1.4995675200
  H         9.2354585792        9.2459380719        2.5207509129
  H         9.1592271502       10.8037093512        2.0418729174
  C         7.3128694957        8.9315327636        6.7300815058
  H         8.0659147856       10.9890656887        6.9480868363
  H         6.8776001708       10.8939604467        5.8375007826
  C         6.5623288659        9.1960010083        8.0112561127
  H         8.1398883870        8.1771094407        6.8492861596
  H         6.6026421460        8.6281247390        5.9485670928
  C         5.3810920027       10.2001769066        7.9933889253
  H         7.4755883647        9.4405838304        8.6491618460
  H         6.3187053609        8.2236901044        8.4781470648
  C         4.1290858389        9.6716815282        7.2639052658
  H         5.1236511099       10.4131006098        9.1103607878
  H         5.6905296989       11.1320482302        7.6170746204
  C         2.8883853012       10.6040209979        7.0515176075
  H         3.8219950535        8.9571712032        8.0325145157
  H         4.3959160346        9.1656972772        6.3070883959
  C         3.4643222761       11.9336983038        6.4524496357
  C         2.5408303398       11.3253658649        8.2763380227
  C         1.7244320158        9.9424722390        6.2218107728
  C         3.2445242388       13.0302331135        7.2107964524
  C         3.9819803200       12.2517657390        5.2153089498
  C         2.5923888319       12.6852887867        8.3652132950
  C         1.9404381446       10.6815275733        9.3784997936
  H         2.0253405513        9.5188919834        5.2463121018
  H         1.4921823815        9.0926527318        6.8045996279
  C         0.5670192129       10.9316165726        6.1167181122
  S         3.4847852549       14.5027598795        6.4897553602
  C         3.9927798894       13.6445320012        5.0882808036
  H         4.0779878557       11.5098650803        4.4181148671
  C         2.0882341505       13.4415166075        9.4212365628
  H         1.7701994134        9.6478030642        9.4295111043
  C         1.5748439074       11.4323372708       10.4757064324
  H         0.8317288629       11.9406534452        5.8389911562
  H         0.1914409839       11.2151330357        7.1345148394
  C        -0.4454508389       10.5381451714        5.0807790513
  C         4.3421309903       14.4036273109        3.8225085072
  C         1.5834882895       12.7977911352       10.5845525098
  H         2.1525912308       14.4836559703        9.4466566608
  C         1.2003581302       11.0518941866       11.7599204912
  H        -1.2770233421       11.1982260158        5.2077541138
  H        -0.8270191648        9.4551982435        5.1545509556
  C         0.0056405301       10.8395072454        3.6152517647
  C         4.3188900222       15.7857913077        3.4992271429
  C         4.7644799376       13.5543138767        2.6430528148
  C         1.1582409416       13.4783624622       11.9189385741
  C         0.8766830595       12.1081603926       12.5709527817
  S         0.9651178305        9.5630802677       12.5473832519
  H         1.0919782844       10.6327318322        3.5905472497
  H        -0.1481652965       11.8848569599        3.6049719310
  C        -0.7836450369       10.2011162189        2.4787733186
  N         4.0062811146       16.7551268899        4.4477669447
  C         4.3527989013       16.3141585325        2.2916608272
  C         5.0053437746       14.1544231657        1.3616017335
  H         5.2500844125       12.5710756219        2.7960066903
  C        -0.1493668636       14.3090048476       12.0573426516
  C         2.3330612106       14.2498253270       12.5834262530
  C         0.5751979660       11.7375736845       13.9307199951
  C         0.4384888234       10.3863899746       14.0001420641
  H        -0.8825312130        9.1469898967        2.6880326311
  H        -1.8194904784       10.7598650517        2.4951812388
  C        -0.0970727864       10.2530837345        1.0970506092
  S         3.9274617241       18.1857835497        3.6749060819
  N         4.4078987665       17.6585858167        2.2189920224
  C         4.7407776250       15.6055030977        1.1080098126
  H         5.2654882980       13.4520530602        0.5950441304
  H        -0.0260500713       15.2207700015       11.3762172685
  H        -0.3678287117       14.7356924780       12.9796888643
  C        -1.3347091369       13.5273586184       11.4629529000
  H         2.8853107450       14.8873192810       11.8757515473
  H         1.8257461678       14.8773355460       13.3186255431
  C         3.5201301715       13.4378836821       13.2419871815
  H         0.6263511060       12.5229598534       14.6552571867
  C         0.3072828902        9.5679559298       15.2482866394
  H         0.7858730603        9.5987887125        1.1352010054
  H         0.1098570002       11.3079048877        0.7269030817
  C        -1.0100690379        9.6625270386       -0.0760992649
  C         4.9345117890       16.3436148256       -0.2456728608
  H        -1.2122450502       13.2147575182       10.4015443775
  H        -1.5949845112       12.6248290630       12.0999640745
  C        -2.6559469815       14.2469051977       11.3032216667
  H         4.0260431749       12.8078818688       12.5422331472
  H         3.1870994674       12.6714850520       13.9586006597
  C         4.4877134576       14.2828804723       13.9976672048
  C         0.2588833827        8.1530358099       15.3636614015
  C         0.0201334715       10.3917385373       16.4732486266
  H        -0.3746299547        9.0425026742       -0.6563470558
  H        -1.7323739227        9.0151654765        0.4361913714
  C        -1.7833825509       10.6522482404       -0.9566907171
  H         4.6643736494       17.3937081649       -0.2372740131
  C         5.2600046824       15.9458494830       -1.4886069690
  H        -2.3723681143       15.2442970967       11.0196806107
  H        -3.1359810778       14.4363606975       12.1620995491
  C        -3.4515253450       13.5752189617       10.1411631804
  H         4.9197705681       15.0345634454       13.2960541094
  H         3.9691056105       14.9830719349       14.6648898959
  C         5.6352759140       13.4957580599       14.6275288935
  N         0.4656635439        7.1914306713       14.3817884142
  C        -0.1106684691        7.5571846734       16.5775540718
  C        -0.3549024115        9.7508928104       17.6689154077
  H         0.0513854379       11.4990394351       16.3674170889
  H        -1.1943578274       11.5614485594       -1.2015211749
  H        -2.5913920071       10.9582097910       -0.2279517851
  H        -2.3507561046       10.3296342953       -1.8780205934
  S         5.5464277092       14.3600667200       -1.9519285093
  C         5.5557478062       16.9621812928       -2.4864958725
  H        -3.0784349174       13.7463115880        9.2268649225
  H        -3.3868488013       12.6025591063       10.0857104162
  C        -4.9250608709       13.9671840298       10.0832004516
  H         5.7594581553       12.5686609312       14.1388951437
  H         5.2780922614       13.1959800674       15.7169379084
  C         7.0192725890       14.2257562978       14.7110393306
  S         0.3280661656        5.6777948573       14.9835181958
  N        -0.0655498661        6.1426052018       16.5348550190
  C        -0.4661843613        8.2493775544       17.7296294699
  H        -0.6513733617       10.3252823443       18.5011938591
  C         5.8122726395       15.0213351618       -3.5465431306
  N         5.9267736530       16.3067840133       -3.6480177522
  O         5.5417253110       18.1755155866       -2.3708390459
  H        -5.3607620964       13.3811505388       10.7895387440
  H        -5.1421086626       15.0147579606       10.2914680745
  C        -5.5905819514       13.5129197327        8.7728081388
  H         7.6585131130       13.5110593729       15.2575004101
  H         7.4376499732       14.2911541338       13.7091862910
  C         6.8586377541       15.5158992169       15.3849890027
  C        -0.7135207210        7.4645755595       18.9307121262
  S         6.4735202396       13.9694974208       -4.7663850226
  C         6.0329807409       17.1626705448       -4.8910149462
  H        -5.0589203545       13.7104735472        7.8668102848
  H        -5.5855561638       12.4727823464        8.7483470353
  C        -7.0414705598       14.0386794218        8.6990695064
  H         7.6812036825       15.6459896320       16.1024980030
  H         6.0324433939       15.4351393101       16.0498215106
  C         6.8741638417       16.6563997404       14.3954676749
  H        -0.3751988571        6.4434117649       18.8983311880
  C        -1.3355683819        7.7159718890       20.1841870150
  H         6.5476111818       16.7006184863       -5.5992247669
  H         6.5329645948       18.1311398594       -4.6364761674
  C         4.6224913308       17.3347055647       -5.3949449147
  H        -7.3344386639       14.1374970661        7.6811770946
  H        -7.0127961889       15.1264416854        9.0260291325
  C        -7.8549275727       13.8350376546       10.0142704433
  H         6.9406894017       16.2371367420       13.3901929856
  H         5.8795419847       17.2012572036       14.5706847926
  C         8.0688670851       17.5305021894       14.5600707729
  S        -2.1083237295        9.2420673305       20.6172267440
  C        -1.4143209724        6.6322024379       21.1945507045
  H         4.1751656632       16.4579761018       -5.9123168475
  H         4.7984204947       18.0551632792       -6.1285672734
  H         3.9615825100       17.9179457519       -4.8088069358
  H        -7.5892482337       14.5022201159       10.6982003873
  H        -8.8818417693       13.7582679876        9.9020588732
  H        -7.5607557393       12.9315635415       10.5546816537
  H         8.2626219080       18.2008202156       13.7277495439
  H         8.1982465950       18.1823249409       15.4459001925
  H         9.0041784972       16.9256259672       14.4407026232
  C        -2.1363636712        8.5320607971       22.2097978537
  N        -1.9895588970        7.1975955325       22.2568250255
  O        -1.0486779776        5.4640134908       21.1387472228
  S        -2.9089371937        9.3525091233       23.6228051348
  C        -2.2947348561        6.4838244118       23.5748737399
  H        -2.3683288209        5.4848438559       23.2599496133
  H        -3.2748119256        6.6796691403       23.9634255734
  C        -1.2273740442        6.5511869377       24.5733557014
  H        -0.5902703190        5.6980643798       24.5332485530
  H        -1.4489162337        6.7221684212       25.5698564774
  H        -0.5106166676        7.4779631010       24.5045411044
