352
i =
  H        -2.5164909711       15.2480105872       16.2920242804
  C        -2.8836480637       14.2439021166       16.4658199727
  H        -3.9165782792       14.2350791453       16.7761350894
  C        -2.0456506313       13.5681582845       17.5308235776
  C        -2.8884974123       13.5207456131       15.1378282813
  C        -2.7146902024       13.7358288026       18.9130046050
  H        -1.7717851696       12.5292781546       17.3626171757
  H        -1.1522844825       14.2238270815       17.5532214990
  H        -3.5184678570       12.6011825627       15.3092784157
  H        -3.2969076665       14.0800381212       14.3459166528
  H        -1.9365465404       13.1227699330       14.9073241388
  C        -1.7270531978       13.2069661721       19.9272569543
  H        -3.6330935463       13.1964528789       18.9207161575
  H        -3.0743082173       14.7484517546       19.1211766307
  C        -2.2560234492       13.2802715026       21.3681739606
  H        -1.4579261925       12.1566575481       19.7812569570
  H        -0.8085703412       13.8014568494       19.9760005745
  C        -1.2393044890       12.8005168874       22.4529510180
  H        -3.2179215390       12.7001661792       21.4057618876
  H        -2.5790890569       14.2947949795       21.5873400437
  C        -0.1012971851       13.8125564679       22.7986128522
  H        -1.7272112400       12.5183826248       23.3814500357
  H        -0.7493470990       11.8995801326       21.9664105788
  C         1.1860025407       13.2289685774       23.3688037438
  H         0.1143242120       14.2882579873       21.8841487402
  H        -0.4029292974       14.5788755415       23.4910125682
  C         1.6052736949       11.8481669273       22.6825855386
  C         0.8351446676       12.4918619179       24.6220852234
  C         2.2929212750       14.3051155168       23.5267481845
  C         1.5563449024       10.7773218862       23.4801477680
  C         1.8917646546       11.5108339795       21.3748566800
  C         1.0172963748       11.0894271237       24.7487771607
  C         0.4226127049       13.0960392862       25.7741229024
  H         2.5452182038       14.6010888289       22.5163446976
  H         1.9162025233       15.1444436800       24.0037793083
  C         3.5704716920       13.6558538769       24.0255765152
  S         2.0873043494        9.3143500736       22.7436238676
  C         2.1133126509       10.1574835937       21.2380197572
  H         2.0229523500       12.3251201320       20.6535185881
  C         0.7709521185       10.4866040001       25.8877239913
  H         0.1929490155       14.1984082448       25.8139580531
  C         0.0131718748       12.4610659402       26.8820914981
  H         3.9264347398       12.8639029949       23.3574845873
  H         3.5658893733       13.1842469298       24.9815298675
  C         4.7234401321       14.6213292531       24.1197346314
  C         2.5378125208        9.5495466639       19.9459632415
  C         0.0998525822       11.1140333576       26.9738081088
  H         0.7379824601        9.4145866452       25.8718652717
  C        -0.3697896273       12.8162545303       28.1726518262
  H         5.2987934178       14.3223267432       24.9448050513
  H         4.4228690571       15.5885645149       24.5848490729
  C         5.4700051752       15.0664406678       22.9436221161
  C         2.5182208697        8.1528802317       19.6520611600
  C         2.9451501585       10.4137574818       18.7781851511
  C        -0.3261274221       10.3443545298       28.1971589204
  C        -0.5578816102       11.6673051015       28.9564617701
  S        -0.5438175408       14.2658515175       28.9909810711
  H         6.1316691837       15.8783992383       23.2411334797
  H         4.7233948652       15.5193516148       22.3006617893
  C         6.2405770087       13.9801709139       22.2485996610
  N         2.1692163342        7.1268184106       20.5938373042
  C         2.7046612560        7.6946844285       18.3357626103
  C         3.1795635859        9.9332183644       17.5310591553
  H         3.1782652508       11.4110163601       19.0294730667
  C         0.8704334925        9.5167517999       28.7997723460
  C        -1.6066966895        9.5451947252       28.0083976558
  C        -0.9034720810       12.0388086675       30.2104330024
  C        -0.8991401988       13.3935899979       30.4185866381
  H         7.3243123615       14.1448668366       22.0642426771
  H         6.2629943106       13.1621290853       22.8893743233
  C         5.5634030180       13.5152384702       20.9359343037
  S         1.9704929734        5.7893667613       19.7461427791
  N         2.5813812922        6.2984948293       18.2816093484
  C         3.1127711719        8.4867086827       17.2868251255
  H         3.4526013992       10.6354679866       16.7738668052
  H         1.1262265659        8.7913173918       28.0287450970
  H         0.4487499377        8.9354419097       29.6067417684
  C         2.1413536456       10.2581313442       29.2536395185
  H        -1.4974924336        8.5673635015       27.5432306688
  H        -1.9069897360        9.1842162691       29.0532911237
  C        -2.7440511097       10.3462433919       27.2880190448
  H        -1.0312588922       11.2117150094       30.9473208886
  C        -1.2802393206       14.0209578887       31.7575515391
  H         4.4555505588       13.8888976752       21.0097053259
  H         5.4366788673       12.4508640205       20.9835932563
  C         6.1162839103       14.0428807438       19.6099130702
  C         3.3291711421        7.8773597119       16.0189786554
  H         2.5799322647       10.7353982550       28.3504514599
  H         1.9351673738       11.0651490243       29.9927117365
  C         3.0879829476        9.1764201498       29.7081285227
  H        -2.4237699225       10.7530126091       26.3353051432
  H        -3.0373958902       11.2178225782       27.8719302000
  C        -3.9343150314        9.3906600697       26.9563236599
  C        -1.3917456397       15.4119195347       31.9436623610
  C        -1.6017057421       13.2000816118       32.9581616972
  H         5.5013996859       13.7224146724       18.7127167136
  H         6.0760787043       15.1113040987       19.4723125530
  C         7.4911654085       13.5154499389       19.3131931199
  H         3.2013676952        6.8209409434       16.0756542743
  C         3.7220099996        8.3081370211       14.7662627859
  H         3.4282664798        8.3840859388       28.9749014620
  H         2.5935944078        8.3840047399       30.3396672750
  C         4.3105655162        9.8124847937       30.4269097437
  H        -3.5301213451        8.5776684861       26.3295029766
  H        -4.2944543952        9.0262427995       27.9086246637
  C        -4.9211107137       10.2597593483       26.2866350841
  N        -1.0304881419       16.4002730980       30.9877781885
  C        -1.7564010941       15.9551573613       33.1838593878
  C        -1.9757596620       13.7893721795       34.1716265194
  H        -1.5799356305       12.1606961418       32.9713986499
  H         7.7190249630       12.6605754805       19.9632953149
  H         7.6338205206       13.0947165105       18.3007062785
  H         8.3126719371       14.1384614459       19.6456615522
  S         3.9701524037        9.8787082948       14.2278658334
  C         3.9319403448        7.2701029240       13.6865856171
  H         4.5927174518       10.6816644338       29.7487088331
  H         4.0415441687       10.3008863342       31.3499931813
  C         5.4649412615        8.8293867150       30.4783555103
  H        -4.6228629692       10.6236537883       25.3037488148
  H        -5.1582962372       11.0982593004       26.9621240134
  C        -6.2177171695        9.5861809514       26.0503293913
  S        -1.3958813218       17.8465701113       31.6568878156
  N        -1.9181912511       17.3505440410       33.0991610485
  C        -2.0884780599       15.2170490231       34.3228600308
  H        -2.3339396317       13.1822541362       34.9294577835
  C         4.2718155004        9.1696241419       12.6045931009
  N         4.2814035890        7.8703646474       12.5550982542
  O         3.8822618193        6.0623694429       13.8972586336
  H         6.2851635104        9.3861995340       30.8423701350
  H         5.6943644042        8.5208016556       29.4505890632
  C         5.1459521183        7.8030261479       31.4920314427
  H        -6.0174631565        8.5626214915       25.6624429722
  H        -6.6305777352        9.6355131543       27.1223009674
  C        -7.0670474222       10.5192706810       25.1506209271
  C        -2.5114700637       15.9202182381       35.4747992222
  S         4.4633376894       10.1264157941       11.1815083375
  C         4.3311923146        7.1764776535       11.2507147754
  H         5.5860896360        8.2545169379       32.3986686705
  H         4.1173428506        7.7088696915       31.8482698992
  C         5.8359820887        6.4210934718       31.2339119538
  H        -6.6805131905       10.6371945873       24.1491854068
  H        -7.0104029200       11.4462569121       25.6452420548
  C        -8.4466835635        9.9594053346       24.9791164825
  H        -2.0805373904       16.9210853187       35.3766999245
  C        -3.2002923025       15.5869161900       36.6397496933
  H         5.0720486466        7.5274024834       10.5899573036
  H         4.5750780243        6.1065919865       11.3558058562
  C         2.9960367130        7.2519116675       10.5676053714
  H         6.7755003178        6.6389198669       30.7623709606
  H         5.2251690976        5.7341116104       30.5886244010
  C         6.0049771759        5.6362325613       32.5460392183
  H        -8.9168817749       10.4124939678       24.1080201867
  H        -8.3861779291        8.9232717648       24.8364168152
  C        -9.2035230575       10.1525347017       26.3125843226
  S        -3.8304100608       14.0504700965       37.0790743382
  C        -3.3229518090       16.6254445461       37.6994026872
  H         2.6306773165        8.1652663122       10.2251925287
  H         3.1059379062        6.5596550665        9.6990083478
  H         2.1564728195        6.7834620597       11.1969374420
  H         6.6464682598        6.1098042599       33.2979557534
  H         6.4091327309        4.6814737598       32.2434237362
  H         5.0082447829        5.3637417842       32.9166445019
  H        -8.9904207375        9.4628395185       27.1397335100
  H       -10.2081790914        9.7895431501       26.1600207082
  H        -9.1650496291       11.2585356671       26.6099308925
  C        -4.3416366101       14.7812793282       38.6125235604
  N        -4.0426157222       16.1094171246       38.7616755810
  O        -2.8560380368       17.7628446565       37.5965666069
  S        -5.1679433747       13.9640007794       39.9417056100
  C        -4.2172943824       16.8070625663       40.0375864060
  H        -4.5160129040       17.8506947065       39.8633345707
  H        -5.0810095911       16.4417853232       40.6635061159
  C        -2.9419009058       16.8622406160       40.8110073453
  H        -2.1206354714       17.3025425076       40.3028989638
  H        -2.9620341393       17.5633400206       41.6521977912
  H        -2.5370954980       15.9203886574       41.1398215409
  H         7.3631920674       10.9715088389        3.5269683913
  C         8.0719464772       10.1298740697        3.5039252205
  H         7.5405567520        9.2047718209        3.6192722886
  C         8.9176115979       10.3701669965        4.7334411140
  C         8.7295479106       10.2241337980        2.1621450343
  C         8.0239485914       10.5417528141        5.9199806370
  H         9.8048503350        9.7095443262        4.8507690332
  H         9.3073361043       11.3665915116        4.4473418818
  H         9.8530061132       10.2531385540        2.2687383698
  H         8.4661444110       11.1307691767        1.5973037031
  H         8.5855242141        9.3878783093        1.4934788560
  C         7.4144640406        9.2343499149        6.4524586774
  H         8.5415675374       11.0375712265        6.7445520144
  H         7.2340938814       11.2670500670        5.7059085918
  C         6.5610215968        9.3081124488        7.7523110762
  H         8.1796432140        8.5631755481        6.6397161630
  H         6.7857519095        8.7755913475        5.6636101229
  C         5.4135974670       10.3374768735        7.6574967509
  H         7.0992728584        9.6449147226        8.6683895849
  H         6.2262933751        8.3079613968        7.9911688350
  C         4.1299059276        9.6824918594        7.0406186123
  H         5.1228928603       10.7242132295        8.6077006388
  H         5.6718914925       11.1912872768        7.0839044260
  C         2.9045007921       10.7222417062        6.8084657279
  H         3.9550625227        8.9559113524        7.8320813429
  H         4.3246392547        9.1689751717        6.1625703969
  C         3.2826469728       12.0245436772        6.1664425173
  C         2.4589208826       11.3961415093        8.1011469965
  C         1.7433880943        9.9798179670        6.0555884803
  C         3.0156979112       13.1203576764        6.9576968051
  C         3.7199319942       12.3822201726        4.8875072633
  C         2.5171820771       12.7176041843        8.1715763263
  C         2.0171248430       10.7462551912        9.2605853413
  H         2.0401136818        9.6901983398        5.0314517072
  H         1.5830337270        9.0209867695        6.5819649777
  C         0.5012387102       10.7875883290        5.9471113414
  S         3.3894620212       14.6665620705        6.1943612468
  C         3.9071661433       13.7405900083        4.7899944727
  H         3.8291357174       11.5617839945        4.1762793132
  C         2.1683007709       13.3682758600        9.3395036150
  H         1.9055997452        9.7011578060        9.1235647992
  C         1.5949916324       11.3848517578       10.4032084022
  H         0.6562917539       11.8032824512        5.6633574308
  H         0.1188322809       10.8504992998        6.9218587458
  C        -0.5780589735       10.1698556864        5.0776077385
  C         4.4135717697       14.4629929527        3.5673263511
  C         1.6681697770       12.7166419766       10.5133467783
  H         2.3999108457       14.3974067366        9.4337815710
  C         1.1498851302       11.0093906251       11.6670317081
  H        -1.4325189351       10.7662484762        5.0026447598
  H        -0.9251283578        9.1271907501        5.3197837078
  C        -0.1172569446       10.0393722109        3.6704897337
  C         4.3529448657       15.8301243621        3.2960449895
  C         4.8096754709       13.6332943983        2.4385861519
  C         1.2356802675       13.4539640094       11.7519131836
  C         0.9351303540       12.1176995107       12.4684156748
  S         0.8229919761        9.4704642954       12.4022479727
  H         0.3241848683        9.0793393714        3.5192938470
  H         0.7147336836       10.7775354670        3.6097196414
  C        -1.2679638830       10.2492699276        2.7284270245
  N         3.9830182168       16.7864373419        4.2765293371
  C         4.6599932665       16.4059373273        2.0612243801
  C         5.0442032019       14.2115740288        1.2054364155
  H         5.0476760687       12.6175994055        2.6374712120
  C        -0.0606681911       14.1308470891       11.6483214890
  C         2.2260772299       14.3118563894       12.5750687957
  C         0.6089007884       11.6600574427       13.7932882436
  C         0.3803167425       10.3065819454       13.8158866147
  H        -2.0293921297        9.4471238096        2.9191155167
  H        -1.7698860235       11.2116482698        2.7765856805
  C        -0.6372025516       10.1446568422        1.3288497403
  S         4.0679812228       18.2531259685        3.5728834038
  N         4.4384592991       17.7803106627        2.1051395693
  C         5.0008758825       15.6919693487        0.9486561692
  H         5.2842098592       13.5323938484        0.3788676693
  H        -0.0216284944       15.2218762121       11.5493551225
  H        -0.4624558712       14.1071356483       12.6280125322
  C        -1.0427106194       13.4605123422       10.7325968383
  H         2.6952170709       15.0300160305       11.9422728445
  H         1.7214497545       14.8368591327       13.3515957027
  C         3.3968991658       13.5218997373       13.0146067468
  H         0.6518506586       12.3302894654       14.6348829839
  C         0.0573134047        9.5963097454       15.0842037789
  H         0.2941960307        9.4912378146        1.2123738027
  H        -0.2655028416       11.1950814185        1.0143425064
  C        -1.6315882404        9.6949434009        0.2321656380
  C         5.2625966052       16.4069457773       -0.2703687641
  H        -0.7610185314       13.6927674068        9.6888299343
  H        -1.1831155990       12.3735653184       10.9324353657
  C        -2.4672569961       13.9923211797       10.8937419515
  H         3.9746579453       13.1748960101       12.1746772689
  H         3.1429555324       12.6161796661       13.5398123221
  C         4.4776302976       14.2944483276       13.8290795191
  C        -0.0563664483        8.1878430461       15.2234187032
  C        -0.2151321420       10.3604970728       16.3488285618
  H        -1.5718329778        8.6344214855        0.2014291684
  H        -2.6553533065        9.6882783924        0.6507675280
  C        -1.5304632308       10.3462887485       -1.1396010593
  H         5.1101043429       17.4875122256       -0.2020323539
  C         5.4602006023       15.9309921198       -1.5927740997
  H        -2.6276065886       14.7218194682       10.1425811926
  H        -2.5305847454       14.4936458574       11.8572937636
  C        -3.5916285850       12.9068473059       10.7752826116
  H         4.8254641504       15.2283705814       13.4197290018
  H         4.1189431773       14.6836285098       14.8144849446
  C         5.6530985082       13.3296783310       14.0408366275
  N         0.1229668571        7.2812439790       14.2187712830
  C        -0.3457751075        7.5337905003       16.4298251342
  C        -0.4941819800        9.6907575358       17.5591567086
  H        -0.2206580992       11.4215730557       16.3495395107
  H        -0.4087735419       10.3505587084       -1.3669738386
  H        -1.8880375538       11.4066712080       -1.0678331195
  H        -2.1094531835        9.9018444226       -1.9440547804
  S         5.7717138247       14.3130475846       -1.9309637410
  C         5.5227017169       16.9194712196       -2.7139281906
  H        -3.3559940297       12.2554979386        9.9983393979
  H        -3.4944007634       12.2927871603       11.6424159493
  C        -5.0469406432       13.4299451538       10.7069110689
  H         5.6475380915       12.3987106467       13.2783542776
  H         5.4173741270       12.8131517910       14.9512335669
  C         7.0816829130       13.8926820973       14.2512744884
  S         0.1071679974        5.7429237463       14.7711433953
  N        -0.3542962509        6.1585078193       16.2912195548
  C        -0.4923649090        8.2049935777       17.6315023082
  H        -0.7281438933       10.2067870589       18.4248058271
  C         5.9527964810       14.8741257747       -3.6231327235
  N         5.8975172050       16.2242933954       -3.8204685074
  O         5.3983875882       18.1441254531       -2.5853232258
  H        -5.5155794762       13.3009553998       11.7067713919
  H        -4.9843006586       14.5119134808       10.7381422789
  C        -5.8101576703       12.7672466153        9.5547816447
  H         7.6214405517       13.0280591876       14.6701525320
  H         7.5679198300       14.3478456432       13.3243148622
  C         7.2449568278       14.9533951177       15.3864940759
  C        -0.8081165216        7.4443767471       18.7656976288
  S         6.2942727550       13.8081884339       -4.9864519595
  C         6.0111967451       16.8162856500       -5.1469484305
  H        -5.1198710774       12.4746535820        8.7932986423
  H        -6.1292996574       11.8609342543        9.9885267108
  C        -6.9092875752       13.6369671248        8.8764705141
  H         8.1687395563       14.7141154759       15.9176395443
  H         6.3908159111       14.8085709710       16.1646132699
  C         7.3641440304       16.4058986823       14.8794271208
  H        -0.8498415466        6.3336426129       18.6080887801
  C        -1.1176374734        7.8445262176       20.0792240787
  H         6.3744561074       16.2809054105       -5.9809545757
  H         6.6484499322       17.6938596672       -5.1114502471
  C         4.5874593206       17.1876443740       -5.6987526404
  H        -7.4138952466       13.0591004062        8.1075580114
  H        -6.4824157105       14.5212250689        8.4607141931
  C        -7.9566520889       14.0182846228        9.8729613962
  H         6.4805837099       16.7295002604       14.2668916918
  H         7.2812093554       17.0583784675       15.7419158429
  C         8.7017033796       16.8003409802       14.2098426682
  S        -1.0563110000        9.4508697808       20.8360096278
  C        -1.2328870657        6.8111059911       21.0946961546
  H         3.8980685177       17.6548408259       -4.9863777150
  H         4.0772699785       16.3537395390       -6.0987101532
  H         4.6827522139       17.8300892437       -6.5111285246
  H        -8.8004297078       13.4112467617        9.6764345271
  H        -7.7992020035       14.0191237100       10.9837325956
  H        -8.2744064021       15.0469189915        9.5240974208
  H         8.6416964050       17.8234438000       13.9555218795
  H         9.6857341875       16.6145347071       14.7299401224
  H         8.7965950923       16.2728926147       13.2104044198
  C        -1.4856529052        8.6289929237       22.3641536588
  N        -1.6205050384        7.2734723825       22.2983397461
  O        -1.1689886248        5.6254017732       20.8589191658
  S        -1.7281107300        9.3941394853       23.9816136320
  C        -1.9762680744        6.3727851228       23.4063215603
  H        -2.0976600978        5.3163905858       23.0363519925
  H        -2.9179624246        6.6592492503       23.7125952337
  C        -0.8652911977        6.2873631750       24.4248272066
  H         0.0086052919        6.3363770249       23.7873195081
  H        -0.8279717915        5.3117001433       24.9028595332
  H        -0.8636350185        7.0785700013       25.2181967841
