352
i =
  H        -3.8084143156       14.3968652453       16.2853291265
  C        -3.3945419472       13.4176170514       16.4646995081
  H        -4.2072780782       12.7716531782       16.7205639558
  C        -2.4350934190       13.3582131767       17.5730995267
  C        -2.8530740106       12.8778971896       15.1261848037
  C        -3.1632249360       13.3844262225       18.9653128370
  H        -1.9510311399       12.3792166353       17.4584253896
  H        -1.7369570211       14.2262428062       17.3915617157
  H        -3.5992891946       12.9961932266       14.3216278562
  H        -2.0240845443       13.3912664743       14.6923655206
  H        -2.6375873214       11.7419800906       15.1376465201
  C        -2.0605178411       13.4405143021       20.0145596126
  H        -3.6118270290       12.4131700768       19.0561831045
  H        -4.0134526531       14.0984707450       18.9831413170
  C        -2.5860611096       13.5272297024       21.4179596659
  H        -1.3888747634       12.6612434477       19.9817305414
  H        -1.5120573194       14.2923253239       19.8273224174
  C        -1.6095543991       12.8969397157       22.4391911038
  H        -3.5585417941       12.9257280957       21.3023728827
  H        -2.8100909989       14.4931509644       21.7074022567
  C        -0.3077160727       13.7198195753       22.5435209652
  H        -1.9875182249       12.7913634965       23.4029083082
  H        -1.4363627731       11.8393849776       22.1679457157
  C         0.9208750813       12.9735239704       23.2069462734
  H        -0.0111037807       14.1603247200       21.6144221825
  H        -0.3966672763       14.5623910112       23.1537246384
  C         1.1380237836       11.6122809540       22.5660536060
  C         0.4843044951       12.3430516194       24.4844481226
  C         2.1673835374       13.9024865201       23.2740486196
  C         0.9841795397       10.5559127284       23.4334478092
  C         1.5410821030       11.3304297201       21.2291078575
  C         0.5076854730       10.9548212406       24.6394502529
  C         0.0186834687       12.9471315092       25.6631589067
  H         2.1142079348       14.6243354688       22.4740677092
  H         2.0690236495       14.4634756544       24.2247936292
  C         3.4474137625       13.1130055480       23.5496903525
  S         1.3788110141        9.0011951017       22.6301082568
  C         1.6698258234        9.9907865748       21.1140378239
  H         1.7255908578       12.1248829516       20.4396716110
  C         0.0683928892       10.3577594252       25.8362057104
  H         0.0724211630       14.0346837482       25.6086348218
  C        -0.3570441188       12.4116711867       26.8830905019
  H         3.6034795342       12.3795180020       22.8710833967
  H         3.3433041297       12.4772807709       24.4336576620
  C         4.6617476890       14.0168473988       23.7849771438
  C         2.0162125535        9.2241859497       19.8411258503
  C        -0.4052426224       11.0776626651       26.9853092486
  H         0.1154557009        9.3047382231       25.8811835915
  C        -0.7369548625       12.8879253440       28.1209208738
  H         5.4511026915       13.5506872778       24.3130258119
  H         4.2824370191       14.7325579846       24.6343669057
  C         5.1495474165       14.6344454291       22.4531491823
  C         2.1670511220        7.9057005195       19.6244254276
  C         2.3630903148       10.1124650116       18.7064927477
  C        -0.8606749587       10.4926708718       28.2445232701
  C        -1.1595895051       11.8585662371       28.9022369208
  S        -0.9832109779       14.3876019812       28.9084609833
  H         5.6997604363       15.5531957311       22.7787494811
  H         4.4409345325       15.1443546745       21.8883140260
  C         6.3251956860       13.8569026356       21.7579983812
  N         2.2545967990        6.9145897312       20.6858537854
  C         2.4062724318        7.3051755262       18.4340678959
  C         2.7085614296        9.5844637084       17.4566614703
  H         2.3734657191       11.1919603030       18.6833700970
  C         0.2035253417        9.6877717849       29.1183908925
  C        -2.1942269494        9.7281900955       28.0309750207
  C        -1.7137933521       12.2651480357       30.1447700649
  C        -1.6239692048       13.5722249874       30.3622642035
  H         7.2897495256       14.4094343155       21.8351189572
  H         6.5065969099       12.9906915916       22.4370740315
  C         5.8757796459       13.4880586575       20.3703888595
  S         2.2124623617        5.4254157437       19.9886845955
  N         2.3937118919        5.9378825368       18.4225227504
  C         2.7898679015        8.0959046147       17.2693869857
  H         2.8967871273       10.2804487331       16.6190756283
  H         0.4704951205        8.7728926828       28.7296812465
  H        -0.3124361849        9.2844758876       30.0007043890
  C         1.4585047345       10.5358227258       29.5043374577
  H        -1.7849975425        8.8770655668       27.4539039079
  H        -2.5480090728        9.2119181503       28.9353761378
  C        -3.3905117035       10.3630314385       27.2832318810
  H        -1.9225493558       11.5167020095       30.9113029462
  C        -1.8990354204       14.2838604094       31.6620407762
  H         4.9999300169       14.0737928915       20.0299404533
  H         5.5350899418       12.4039719482       20.4228529225
  C         7.0479347531       13.4771419929       19.4866502814
  C         3.0332251186        7.4927947335       16.0188277427
  H         1.8534698184       10.9172137350       28.5246089661
  H         1.2424274290       11.2883512631       30.2742879425
  C         2.5313924503        9.6653294297       30.1255745386
  H        -2.9267387529       10.4401361450       26.3466623934
  H        -3.5317138583       11.3871990053       27.4722670511
  C        -4.6439397824        9.4386389955       27.2926483353
  C        -1.7656555693       15.7230303821       31.8294641250
  C        -2.0978945555       13.5368612561       32.9561858757
  H         7.9261908090       14.0904597653       19.5836287686
  H         7.4766835107       12.4520014523       19.5210846928
  C         6.6731994974       13.6178690532       18.0467917210
  H         2.8890678161        6.4173988542       16.0149275561
  C         3.3256430439        7.9635048618       14.7527414685
  H         2.9543314264        9.0077945793       29.3352843912
  H         2.1395992931        9.1669096926       31.1093126967
  C         3.7669836314       10.3921316970       30.6211584294
  H        -4.5133693010        8.5386245211       26.6746818386
  H        -4.9310530774        9.1529606688       28.3129017496
  C        -5.8048041320       10.2192951969       26.8058106136
  N        -1.4359130523       16.5803317976       30.7718209009
  C        -2.1245268521       16.3554416671       33.0003106946
  C        -2.3304883480       14.2534767584       34.2006098639
  H        -2.1790624694       12.4062218059       32.9152370627
  H         7.2253778199       12.9143890019       17.4093301901
  H         5.5770601214       13.3275463566       17.9217415150
  H         6.7402239396       14.6443861766       17.7246776089
  S         3.6408378263        9.5862857899       14.3451403829
  C         3.5554985520        6.9944534636       13.6230499541
  H         4.0590278755       10.9046587496       29.7117021917
  H         3.5524292966       11.1108647508       31.4354029834
  C         4.8784461031        9.5740764235       31.3045309520
  H        -5.4031900973       10.7227691949       25.9168185223
  H        -6.2175152218       10.8903272283       27.5514740909
  C        -6.9561223163        9.4490980989       26.3196014392
  S        -1.6426084316       18.1294168549       31.3223858598
  N        -2.0001176501       17.7778311652       32.8668547451
  C        -2.5050611223       15.7407069415       34.2015572099
  H        -2.7293498623       13.8079822544       35.1271045605
  C         4.0831860230        9.0431140061       12.7673498162
  N         4.0963426009        7.6826444736       12.5921069500
  O         3.3152917573        5.7917809756       13.5886943787
  H         5.3936538762       10.1103563829       32.0464644383
  H         5.6500065547        9.6745596234       30.5198094977
  C         4.6764036063        8.0688860826       31.6171997294
  H        -6.6010223514        8.5949951158       25.7771964690
  H        -7.5187424205        8.9742635390       27.1467683828
  C        -7.8447471006       10.3721457645       25.5291264431
  C        -2.8450983615       16.4674821035       35.3887698898
  S         4.6846098255       10.1047469298       11.5626209440
  C         4.3917701334        7.0860424446       11.3485035881
  H         4.1731990177        7.9057044353       32.5946438443
  H         3.9943029658        7.5861030736       30.9418414918
  C         5.9270691064        7.1936984069       31.5316132425
  H        -7.3913656627       10.5737244967       24.5221468704
  H        -8.0084820572       11.3444709350       26.0994706880
  C        -9.2909026138        9.8367681794       25.2850936856
  H        -2.7342021425       17.5698204130       35.3551457392
  C        -3.4465810600       16.1067023985       36.5712976421
  H         5.2856810969        7.5516411937       10.8907421025
  H         4.6719755814        6.1013481652       11.5487163864
  C         3.1066989721        7.1333203366       10.4388060637
  H         5.7282083686        6.5786781448       32.4263083620
  H         6.8597323020        7.7180089421       31.8087371341
  C         5.9524720072        6.4336590422       30.1876080726
  H        -9.8388318388       10.4091829134       24.5515908111
  H        -9.3032922866        8.8254082111       24.8792139311
  C       -10.1200345383        9.7180389962       26.5759719608
  S        -4.1109262038       14.5981632088       36.9967973810
  C        -3.5530969089       17.0769496345       37.6613721793
  H         2.8898798214        6.1430907741        9.9478764060
  H         2.2839830871        7.4956727865       11.1153004517
  H         3.2873438513        7.8319178217        9.6246240271
  H         6.7166376729        5.6571394700       30.1375284861
  H         6.1002725554        7.1087049383       29.2962299372
  H         5.0148728634        6.0235833900       29.9724190575
  H        -9.7928224420        8.9245502191       27.2255663030
  H       -11.1455579662        9.3909319095       26.2648408957
  H       -10.1756073329       10.6667660052       27.0754499587
  C        -4.4245923865       15.1496104651       38.6130778541
  N        -3.9720898716       16.4328769024       38.7774530390
  O        -3.0556954751       18.1684412577       37.6916913892
  S        -4.7497476470       14.0171978571       39.9521344131
  C        -4.1848852967       17.1507834221       40.0505436584
  H        -4.6303952682       18.1235926030       39.7376745276
  H        -5.0055730925       16.7674647939       40.6010512294
  C        -2.9028603729       17.4068319584       40.7945817940
  H        -3.0286911230       18.3141465377       41.2980501938
  H        -2.7837481870       16.7085633635       41.6189502030
  H        -1.9484537573       17.5188423934       40.2216319643
  H         7.4059118673       11.6599018577        3.3427317835
  C         8.0111293727       10.7731784029        3.5778296630
  H         7.3074014810       10.0399988003        3.8048566848
  C         8.8818927577       10.9000418239        4.8456314997
  C         8.7917903608       10.4283642715        2.3152612979
  C         8.1361086090       11.1361326468        6.0992542800
  H         9.4178702911        9.9523449636        4.7810325147
  H         9.6414200856       11.7197413716        4.7503855404
  H         9.2909211515        9.4233024849        2.3374867160
  H         9.5920034751       11.2383479475        2.2691039370
  H         8.1312471753       10.5441024923        1.4917748196
  C         7.4575624836        9.8297335461        6.5272245068
  H         8.7400774895       11.7863432305        6.7475593157
  H         7.4390944834       11.8530184477        5.8728362474
  C         6.5965576311       10.0297373085        7.7768152543
  H         8.1827574535        9.0462650136        6.5963502076
  H         6.7644400787        9.5756614640        5.7066588805
  C         5.4064188182       10.9765643304        7.6213889673
  H         7.3124651101       10.5210358882        8.5196129439
  H         6.3146032839        8.9927961901        8.2540056871
  C         4.1875265826       10.2396397815        7.0790950016
  H         5.2017595936       11.3163182146        8.6229427798
  H         5.7146854508       11.7672735791        7.0503197667
  C         2.8169062250       10.9580420160        6.8683375082
  H         3.9306155857        9.4347587513        7.7431602953
  H         4.4594172845        9.7807386021        6.0897802159
  C         3.2376012667       12.2641493959        6.2933770524
  C         2.4738673238       11.6699066340        8.1778051953
  C         1.7212164755       10.3006602328        6.1132257326
  C         2.8861920346       13.4107943972        7.0286238697
  C         3.7462438162       12.7018864045        5.0221887670
  C         2.4579121938       13.0306687536        8.3528952700
  C         2.0037794365       11.0043374482        9.2237046854
  H         2.1849814228        9.9261975854        5.1769354727
  H         1.3002690749        9.4787396953        6.6358919548
  C         0.6295512445       11.2177697125        5.7078308814
  S         3.2538496328       14.9184534530        6.2216846290
  C         3.7675202067       14.0565446535        4.8941080269
  H         3.8531122255       11.9627083595        4.1927989017
  C         1.9892450226       13.6420396309        9.4878054614
  H         1.9277376639        9.9772745298        9.0952980277
  C         1.6308958800       11.5861191803       10.4169272250
  H         0.8957080605       12.1700140677        5.4926615271
  H         0.1097194543       11.2898956908        6.6557584127
  C        -0.4091540670       10.5707205481        4.8848818721
  C         4.1839992568       14.7565939549        3.6548610173
  C         1.5935288969       12.9019832909       10.6464932756
  H         2.0059032151       14.7161676796        9.6503569601
  C         1.1190348260       11.1228987347       11.6287710429
  H        -1.4033105687       11.0975945372        5.0161304979
  H        -0.6324823291        9.6139719639        5.3521468331
  C         0.1130483672       10.3911357853        3.4686275071
  C         4.0942496783       16.1471348264        3.3749699273
  C         4.8313949737       13.9064436363        2.5435728128
  C         1.1598410115       13.5526310105       11.9348052725
  C         0.9037029377       12.1427023696       12.5670901194
  S         0.8229103001        9.5463217892       12.3082684301
  H         0.7592782425        9.4949091247        3.4722724432
  H         0.7260654833       11.2269600159        3.2162037715
  C        -1.0521304879       10.1061322276        2.4531844406
  N         3.6580250542       17.0937965684        4.2165260079
  C         4.4756305465       16.7083804133        2.1394375843
  C         5.2439741818       14.5396343120        1.3315568402
  H         4.8501814481       12.8055241240        2.5970265334
  C        -0.1694891703       14.3899016395       11.8538067994
  C         2.3459933084       14.3372763997       12.5611174193
  C         0.5786177408       11.6048894409       13.8767844549
  C         0.3591085483       10.2509891050       13.7847361839
  H        -1.7518866081        9.5424538164        3.0087432843
  H        -1.4749278507       11.1614415829        2.2997121555
  C        -0.7946247053        9.4979403062        1.0789850127
  S         3.5465654666       18.5597697869        3.5837238006
  N         4.0883789757       18.0413973234        2.1546152691
  C         5.0290918641       15.9679797415        1.0509030967
  H         5.6427047025       13.8682667623        0.5540222160
  H        -0.0089792107       15.3745177732       11.2631731095
  H        -0.3712603236       14.5813413260       12.8820131037
  C        -1.4842635219       13.6042731366       11.3865741376
  H         2.7375321696       15.0250426126       11.8388031863
  H         1.8726328723       14.9112747617       13.3427125292
  C         3.4498148693       13.5519924339       13.1360408837
  H         0.3352899062       12.3049871184       14.6725720338
  C        -0.0877416740        9.3736310814       14.9493299815
  H        -0.7947516553        8.4074033945        1.1711873952
  H         0.1895721725        9.9563296516        0.7427867454
  C        -1.9294082429        9.8128128918        0.0606061683
  C         5.1825075860       16.6147756844       -0.1866289054
  H        -1.3676104827       13.1450597026       10.4355048483
  H        -1.7103089079       12.8995461776       12.1967334926
  C        -2.7345078098       14.5422636558       11.3075358147
  H         3.9336413852       12.9502008623       12.2770625184
  H         3.1607871687       12.7380129289       13.8110155847
  C         4.5365568667       14.4664232356       13.8202012013
  C        -0.1780345018        7.9913943773       15.0269897582
  C        -0.3870883231       10.1434748945       16.2077111281
  H        -2.4964892471        9.0148928485       -0.2869160424
  H        -2.5653343518       10.5581603376        0.4333908613
  C        -1.2873725915       10.4905165561       -1.1470830820
  H         4.7581293230       17.5605559959       -0.2414629291
  C         5.3579919334       16.0885979281       -1.4700972692
  H        -2.6327653322       15.2441528906       10.4225766507
  H        -2.6478677506       15.2880848163       12.1382043029
  C        -4.0973601940       13.8623383715       11.3958921619
  H         4.8224858451       15.1556982350       13.0810617312
  H         4.0563295130       15.1221196829       14.5530895563
  C         5.7824478838       13.7318190343       14.1358078139
  N         0.0945956953        7.1378707267       13.9954433671
  C        -0.3943106463        7.3432407669       16.2617138759
  C        -0.5981985709        9.4814766678       17.4001149161
  H        -0.1679764513       11.1750580827       16.2461117569
  H        -2.1731637678       10.8297331511       -1.7822728946
  H        -0.6084523521        9.8012641685       -1.7418772061
  H        -0.7104209910       11.4317657807       -0.8697562753
  S         5.7839914519       14.4952356151       -1.9267081237
  C         5.4467729178       17.0521623247       -2.5769839012
  H        -4.0451066963       13.0967663562       12.1255103524
  H        -4.8444285656       14.5551130764       11.6978491140
  C        -4.5874468530       13.3790903020       10.0274350381
  H         5.7398825716       12.6760996554       13.7394957098
  H         5.8652681801       13.7630360316       15.1947430620
  C         7.1066901884       14.3836816558       13.4086669047
  S         0.0947980451        5.6360475537       14.6539949479
  N        -0.3888447964        5.8789254829       16.1857830299
  C        -0.7240232451        8.0251366009       17.4840361689
  H        -0.8000910198       10.0403950297       18.2819959257
  C         5.7922324929       15.0665785795       -3.5440957492
  N         5.7526370837       16.3986355028       -3.7129079329
  O         5.3055886161       18.2784190845       -2.4586637263
  H        -4.5323045238       14.1089201039        9.2153636262
  H        -3.8955537315       12.5738795244        9.6877580649
  C        -6.0516066241       12.8121848506       10.1633449420
  H         7.7446484418       13.5104518610       13.3089224094
  H         6.7787863307       14.8507142215       12.4479478905
  C         7.8615640808       15.3920702803       14.3302535680
  C        -1.1448077942        7.3249593650       18.6354308042
  S         6.2339674866       14.0713771644       -5.0025253004
  C         5.8326420672       17.0175274446       -5.0168884471
  H        -6.1135357451       11.7969774964        9.7379230836
  H        -6.1257749706       12.7019776644       11.2509122678
  C        -7.0303740314       13.7942325573        9.4290178396
  H         8.7885276793       15.4622027391       13.7508973162
  H         7.8899002904       15.0250418856       15.3942536184
  C         7.1616416888       16.7273077734       14.4995204894
  H        -1.0013362915        6.2684813731       18.5345781353
  C        -1.6189191995        7.6863211225       19.8990038728
  H         6.3949067942       16.4328218297       -5.6916883951
  H         6.2689313667       17.9644726860       -4.9334412406
  C         4.3995228978       17.3428465093       -5.5247554091
  H        -7.1457295224       13.6020839383        8.3322828762
  H        -6.6068703289       14.7943133083        9.6389612406
  C        -8.4106690004       13.7161422014       10.1465480557
  H         6.9856816854       17.1821377640       13.4885331680
  H         6.1367137712       16.6446151048       14.9269862338
  C         7.8386011946       17.7762000228       15.2954012075
  S        -2.0767521835        9.2517051958       20.4355914934
  C        -1.6424801480        6.6054470199       20.9469276223
  H         3.8480247649       16.4432735776       -5.7395260585
  H         4.6579766538       17.8365234181       -6.5231350371
  H         3.8157919766       17.9418286761       -4.9082499924
  H        -8.8181449208       12.7087891223       10.2268449655
  H        -8.2463692838       14.1358532412       11.1485534456
  H        -9.1498100118       14.3293279378        9.6181860112
  H         8.2062154263       17.3421809189       16.2292166724
  H         8.7122006619       18.3335341453       14.9359060589
  H         7.1008952134       18.5600742328       15.4727159480
  C        -2.3584488821        8.4720549725       22.0095870520
  N        -2.1926119945        7.1608414185       22.0843641937
  O        -1.4380825676        5.4242954035       20.6859601680
  S        -3.1702600257        9.2385119662       23.3607418493
  C        -2.2637446534        6.3396838893       23.2856808543
  H        -2.4954175453        5.2837407612       22.9010245890
  H        -3.0652800926        6.5714172128       23.9555574654
  C        -0.9708137710        6.4032099988       24.0696412733
  H        -0.0053841485        6.1367150076       23.6404641090
  H        -1.0571068548        5.9045782389       25.0776770709
  H        -0.7119428465        7.3778913213       24.4921227699
