352
i =
  H        -3.5814098485       14.6975776350       16.5751865946
  C        -3.0820152434       13.7119785263       16.6541600953
  H        -3.8460213688       12.9481397149       16.9557032529
  C        -1.9465399065       13.5638445616       17.5963541819
  C        -2.5914066107       13.3826785229       15.2300856391
  C        -2.4550552433       14.0371391215       19.0558054424
  H        -1.6499997169       12.4894242381       17.6728345535
  H        -1.0723131894       14.1582867203       17.3877998233
  H        -2.3181506176       12.3464247754       15.1177284346
  H        -3.3965986052       13.5995094330       14.4774782425
  H        -1.7992552554       14.0815095858       14.8448523455
  C        -2.0910004750       13.0311146767       20.1402250398
  H        -3.5747143806       14.1565242139       18.9591531679
  H        -2.0273200575       15.0233543193       19.2356177656
  C        -2.4333331699       13.5851090457       21.5412017623
  H        -2.6010564842       12.1230002573       19.9885618922
  H        -0.9888013060       12.8840365276       20.1377752321
  C        -1.5575051118       13.0294174360       22.6246007217
  H        -3.4150122033       13.2055775955       21.8141857024
  H        -2.3995430459       14.6767724319       21.6516587767
  C        -0.2256779255       13.8463230978       22.6961448054
  H        -2.0793542478       13.0837310676       23.5494013591
  H        -1.2629024246       11.9820206384       22.4851323101
  C         1.0430096026       13.0975584734       23.3608318829
  H        -0.0618195127       14.2809729221       21.6686859123
  H        -0.3892426758       14.7377159462       23.2192790837
  C         1.4505577247       11.7794958574       22.7677128297
  C         0.5618128125       12.4224152483       24.6110880507
  C         2.2373478947       13.9379687295       23.7082577866
  C         0.9590721423       10.6213517357       23.4656664565
  C         2.0282316602       11.3881388766       21.5378687983
  C         0.5434763674       11.0900354051       24.7264868568
  C         0.1798657437       13.0404578876       25.8545523173
  H         2.5416867823       14.4198129812       22.8158252548
  H         1.9532991092       14.7217898007       24.3676887443
  C         3.4818375096       13.1764552473       24.0951357328
  S         1.3549619421        9.1105443428       22.7206914805
  C         2.0496979574       10.0521028931       21.3850113074
  H         2.3843525339       12.1222318708       20.7676572433
  C         0.1905427483       10.5195310638       25.9117897989
  H         0.2243337125       14.1112920339       25.7710118564
  C        -0.1909160409       12.4626508376       26.9956487009
  H         3.8368638744       12.4290502371       23.3386715460
  H         3.2587589052       12.5442927316       24.9663803171
  C         4.6644218097       14.0953881126       24.4966882434
  C         2.5416682627        9.3258732859       20.1325841125
  C        -0.1740528322       11.1252899246       27.1002689004
  H         0.0901084309        9.3860688765       25.9592071161
  C        -0.5883589925       12.8480628412       28.2560445048
  H         5.1497800567       13.6097548600       25.3844308757
  H         4.1766831915       15.0094228786       24.7757649727
  C         5.5990039756       14.2915636299       23.2978520521
  C         2.5827766201        7.9501464388       19.8985197375
  C         2.8862715573       10.1303341827       18.9538284726
  C        -0.6852403547       10.4466904222       28.3591753063
  C        -0.9434295357       11.8279642949       29.0811672125
  S        -0.7755814331       14.4011847818       28.9532654026
  H         6.3414141133       15.0279838837       23.6181718172
  H         5.0815511532       14.7534861761       22.4488912503
  C         6.2708064889       13.0368612858       22.8202715718
  N         2.2108141744        6.9633842899       20.8181109176
  C         2.9677869447        7.3967266167       18.7011131349
  C         3.2689181358        9.6564648500       17.7314881291
  H         2.6758243418       11.0988368715       19.0729470497
  C         0.4250434821        9.6924770004       29.1434678404
  C        -2.0084437600        9.6517840667       28.1985361193
  C        -1.2399319151       12.2691618190       30.3933758084
  C        -1.3192300645       13.6176542592       30.3947695233
  H         7.3432645769       13.1454986213       22.8861973165
  H         6.0726663706       12.2526598512       23.4912644739
  C         6.0818971971       12.7269496791       21.3103709022
  S         2.3941056910        5.5551317267       20.0834593670
  N         2.9421374784        5.9854233074       18.6372550657
  C         3.2480317023        8.1753408978       17.5282988766
  H         3.3554620434       10.3366585538       16.8988536303
  H         0.7759507115        8.8425580369       28.5174959984
  H         0.0595224829        9.2236815519       30.0652955483
  C         1.6314928659       10.4926021801       29.6246242954
  H        -1.8296829603        8.9625201130       27.4005149489
  H        -2.2404969995        9.1626781073       29.1285802815
  C        -3.1500738757       10.4987058078       27.6368199774
  H        -1.5720721301       11.5340682693       31.1160510978
  C        -1.5743385569       14.3668513101       31.6597248267
  H         5.0956852016       12.5794745297       21.0347795008
  H         6.6565154561       11.9097889132       20.9609597174
  C         6.6031647208       13.8631168778       20.4185312997
  C         3.5302274314        7.4960652676       16.2702172807
  H         1.8722662108       11.2099653848       28.9032570108
  H         1.3463906657       10.9112307061       30.5454412009
  C         2.8886850962        9.6468385347       29.9671850477
  H        -2.9398582574       11.1636137945       26.8407008266
  H        -3.4836850353       11.2062228191       28.4334459465
  C        -4.2988510615        9.5872536953       27.3928939344
  C        -1.6914082637       15.7817594937       31.7689999416
  C        -1.8989230543       13.6360926331       32.8993083665
  H         6.0328053056       14.8066701530       20.4801620855
  H         7.6683184938       14.0414197300       20.7856238255
  C         6.6616261025       13.5675911338       18.9543406799
  H         3.6379674076        6.4810261597       16.3554585121
  C         3.7821833067        7.8923296393       14.9351535816
  H         3.4097920055        9.3625766379       29.0629484628
  H         2.5661612247        8.6979608003       30.4843425085
  C         3.8549626167       10.4150730114       30.8657534077
  H        -4.1636269751        8.7634586056       26.6454021208
  H        -4.6015652822        9.0633620028       28.3261325977
  C        -5.4840404654       10.3651188709       26.7963367535
  N        -1.3734015659       16.6652428791       30.7337728596
  C        -1.9631502280       16.3704978630       32.9855224311
  C        -2.0358022015       14.2402669190       34.0614798342
  H        -1.7186005611       12.5432352014       32.9909975142
  H         6.8214895903       14.4462158295       18.3164398273
  H         7.5320862762       12.9579461581       18.6967906669
  H         5.6933934075       13.0951219148       18.7044585837
  S         3.9473381015        9.5537649971       14.3878420990
  C         3.9725675011        6.8533956579       13.8574471479
  H         3.9761093731       11.3863415722       30.3501724893
  H         3.4169337256       10.6373370919       31.8467988676
  C         5.1845031112        9.7348643545       31.0382075096
  H        -5.0258193975       11.1232066753       26.1388741407
  H        -5.9539998808       10.9617994681       27.5290507744
  C        -6.6254294873        9.6760799684       26.1352402099
  S        -1.7557599764       18.1540005686       31.2926342879
  N        -1.9923828653       17.7267851020       32.8401624731
  C        -2.1791046114       15.7433565883       34.2220927653
  H        -2.0981849313       13.6427222150       34.9603298240
  C         4.3916357527        8.9060711645       12.8421359243
  N         4.2931876701        7.5393958007       12.7082947151
  O         3.7942461282        5.6242982061       14.0316045709
  H         5.9647687992       10.3369706221       31.5684224960
  H         5.5476681168        9.7383833947       30.0103008414
  C         5.1622674889        8.2369678207       31.3219978707
  H        -6.3781743676        8.8526742169       25.5673424482
  H        -7.3052201982        9.2986250110       26.9380018826
  C        -7.4517245495       10.5483736698       25.1625962011
  C        -2.4103534173       16.5538008463       35.3856689577
  S         4.9115237866        9.8046191243       11.4065139180
  C         4.2421904602        6.8613076861       11.4548484222
  H         5.8258547865        8.0275617485       32.1826035206
  H         4.1754828363        7.7751546960       31.5434530525
  C         5.6193137427        7.3688801107       30.1934606258
  H        -6.6981798835       10.7209107109       24.3510187032
  H        -7.5300417741       11.5127667782       25.7412334949
  C        -8.7363846870        9.9143447276       24.7008448195
  H        -2.1440499041       17.5610458241       35.2429133010
  C        -2.9519070649       16.2796042829       36.6259137645
  H         5.0309971452        7.1272601824       10.7399001047
  H         4.3573347114        5.8177706552       11.6318771117
  C         2.9081092986        6.9930836924       10.7067115899
  H         6.6572135753        7.5254351022       30.0064588385
  H         5.0595501508        7.5750592516       29.2916271448
  C         5.4996443227        5.9118514067       30.5024948803
  H        -9.1654106765       10.3847580594       23.7928595071
  H        -8.6204736754        8.8694569893       24.4830986357
  C        -9.7995576864       10.0286267252       25.8162574805
  S        -3.4555654194       14.7528101772       37.2004297250
  C        -3.0663055925       17.3754213357       37.6286078880
  H         2.7857844086        6.0032013480       10.2022258805
  H         2.0058516755        7.2172711931       11.3230332053
  H         2.9738254448        7.7642283039        9.9941889315
  H         4.9419552995        5.4256320470       29.7448597073
  H         5.1718674323        5.6156372576       31.5268710661
  H         6.4984622920        5.4966174744       30.3677298140
  H        -9.6456254976        9.2290859755       26.5456631774
  H       -10.6835786035        9.7922844850       25.2895937608
  H        -9.7666377660       11.0171658116       26.2828581901
  C        -3.8147939413       15.5223048203       38.7613081260
  N        -3.6148629774       16.8674746692       38.7270364515
  O        -2.6025008492       18.5110955527       37.4810153317
  S        -4.4691992161       14.7589914564       40.1995753433
  C        -3.7087509708       17.6366916324       39.9508025659
  H        -3.8100095163       18.7491816603       39.7683318194
  H        -4.5187280826       17.2384464872       40.5360461907
  C        -2.3277210848       17.4259371146       40.6794199528
  H        -2.4461015852       16.8972488878       41.6369931360
  H        -1.6967348424       16.8019087932       40.0849816149
  H        -1.7936669607       18.3525071304       40.8623201821
  H         7.5990683167       11.3647360053        3.7101898348
  C         8.2572903648       10.5067715420        3.6774040251
  H         7.5190270493        9.7882872734        3.6009891915
  C         9.0926389605       10.4468786566        4.9906997485
  C         9.0755620999       10.2596942480        2.3665080168
  C         8.3675939278       10.7061276001        6.2901865270
  H         9.6611796913        9.5503315610        4.9502775524
  H         9.8533599293       11.2593267972        4.9570334249
  H         9.6708804760       11.1729600529        2.0339642097
  H         8.3780900381        9.9366578000        1.5838699770
  H         9.8594177327        9.5315119642        2.5226043056
  C         7.3366520896        9.5255508195        6.4190642078
  H         8.9873336409       10.7622941377        7.1543161818
  H         7.8873949827       11.7102895287        6.1844833908
  C         6.6312765399        9.6034170705        7.8506700494
  H         7.8790014593        8.5804529683        6.5046224501
  H         6.5842138899        9.4006695836        5.6625493668
  C         5.4144061391       10.5587995253        7.8097717792
  H         7.3555379940       10.0186385500        8.6232267940
  H         6.2997338726        8.6612258295        8.1911452304
  C         4.1414467323        9.9281480697        7.3511642126
  H         5.2887323034       11.0646791447        8.7627863161
  H         5.6693377230       11.3846817273        7.1348438607
  C         2.8723595067       10.8621921166        7.1838307388
  H         3.9421718667        9.0705293751        8.0506251383
  H         4.3980599318        9.4440259354        6.3744773875
  C         3.2320994404       12.1346324395        6.5021537226
  C         2.4746353862       11.5155625212        8.4088289952
  C         1.7136297858       10.1299117053        6.4007436133
  C         2.9466202825       13.2669510727        7.2733516135
  C         3.8099389225       12.4719169173        5.2406193303
  C         2.4453242987       12.8489478815        8.4966552405
  C         2.0131670190       10.8775266404        9.5401438570
  H         2.0945530990        9.8544389776        5.3863767732
  H         1.3787327149        9.2509078912        6.9285386879
  C         0.5012288140       11.0536768635        6.0967947257
  S         3.3723693474       14.7550075167        6.5114734243
  C         3.9578392852       13.8446990503        5.1209564041
  H         4.0263107156       11.6352475052        4.5210293477
  C         1.9994441789       13.4663049704        9.6482740097
  H         1.9804926829        9.7909233917        9.5074177253
  C         1.5843080280       11.4742671199       10.6684883430
  H         0.7764236720       11.9463425738        5.6309438223
  H         0.0387810427       11.2915457282        6.9711044611
  C        -0.4754622513       10.4030986358        5.1954438236
  C         4.4820049941       14.4944772033        3.8769871746
  C         1.4931625782       12.8237083423       10.7957253057
  H         2.2029842388       14.5195654781        9.6129358073
  C         1.1766226159       11.0366797839       11.9153664002
  H        -1.4656523961       10.8219463427        5.1306381876
  H        -0.6192479264        9.3712373527        5.4670870279
  C        -0.0583109256       10.3965136126        3.7815296858
  C         4.3981878769       15.9162589737        3.5986736990
  C         4.8255187649       13.6236483157        2.6983694431
  C         0.9763034961       13.5023450921       12.0580443321
  C         0.8300256011       12.0829739172       12.7834176141
  S         1.0678634217        9.4441136271       12.5847240466
  H         0.5991668702        9.5066381498        3.5929929863
  H         0.5882358834       11.2846864432        3.6351618018
  C        -1.2112342596       10.3455346197        2.7629230151
  N         4.0989380792       16.8492442663        4.4982401317
  C         4.5900971327       16.4926176371        2.3792402981
  C         5.1266162118       14.2354517150        1.4691213237
  H         4.6561260128       12.5684365577        2.7548284616
  C        -0.3042303802       14.3489426841       11.7831148416
  C         2.1808940600       14.2407114624       12.7909913609
  C         0.5158963562       11.5510326531       14.0626201028
  C         0.6100211089       10.1664108644       14.1035775589
  H        -1.7733765219        9.4376479888        3.0048552625
  H        -1.9900381483       11.0887795081        3.0353646402
  C        -0.8406326927       10.4837449223        1.2412463723
  S         4.0078904260       18.3228161183        3.8595732653
  N         4.4239239490       17.8447735478        2.3787421005
  C         5.0364284902       15.7253056499        1.2504193886
  H         5.3596456652       13.5462951530        0.6808055104
  H         0.0152284863       15.2861026412       11.1712510910
  H        -0.7603693439       14.6079200492       12.7131927471
  C        -1.4475874552       13.5434606696       11.1120486581
  H         2.4439002558       15.2004774056       12.3667968018
  H         1.8371304558       14.4455179774       13.8020349236
  C         3.4358667353       13.4652025258       12.9880545279
  H         0.2304598277       12.2438410845       14.8653598816
  C         0.2910246817        9.4555015419       15.3857453307
  H        -0.1865047358        9.6693825992        0.9451104920
  H        -0.4111921018       11.3681815611        0.8568265834
  C        -2.0772254567       10.2441708660        0.3436028360
  C         5.1602707804       16.3799463292        0.0319732556
  H        -1.0635305884       12.8135229926       10.3638153120
  H        -1.9448641803       12.8204943906       11.8351262721
  C        -2.4745568464       14.4314680233       10.5330703825
  H         3.7322703864       13.0635227237       12.0314683455
  H         3.1423209727       12.6642333220       13.6502820667
  C         4.6187011513       14.2078899747       13.5754435516
  C         0.1887994529        8.0159546781       15.4233330680
  C         0.0005874069       10.1847898844       16.6553929182
  H        -1.9840724485        9.1739088636        0.0760941798
  H        -2.9758056024       10.3111502600        1.0526502455
  C        -2.1829054510       11.1468017686       -0.8731393269
  H         5.2295333846       17.4237408489        0.1070728782
  C         5.4240284501       15.9976467289       -1.2444663844
  H        -1.9995093688       15.0756968175        9.7552711621
  H        -2.9225467567       15.0100934447       11.3202941376
  C        -3.5995983506       13.7173914720        9.7372614869
  H         4.9973701385       14.8030002730       12.7498260123
  H         4.2792867255       14.7950864832       14.4165928385
  C         5.8379265302       13.4070676250       14.0099551434
  N         0.4837070316        7.1002689688       14.4397493467
  C        -0.0056695107        7.3403158179       16.6466424135
  C        -0.2353795599        9.4619282960       17.7801319404
  H         0.0209959996       11.2288920032       16.6098795661
  H        -3.0119313915       11.8748915546       -0.7059296421
  H        -2.3622271563       10.5836165974       -1.7751697289
  H        -1.3501578344       11.8990357691       -1.0568834549
  S         5.7170704689       14.4444753967       -1.8209265227
  C         5.2039821147       17.0587109169       -2.2963554324
  H        -4.2022806365       14.4658387139        9.1992964145
  H        -3.1346650410       13.0750996376        8.9758985033
  C        -4.6698474047       12.8746110188       10.4857517626
  H         6.2227022886       12.9114168546       13.1122603917
  H         5.4358033251       12.6632788471       14.7138363699
  C         6.9699352929       14.1881227401       14.7101487603
  S         0.4996864097        5.6161420537       14.9985606209
  N         0.0162353423        5.9625276164       16.5078998662
  C        -0.3093297140        8.0142347411       17.8803334075
  H        -0.3214399228        9.9309072524       18.7247195195
  C         5.7447780604       15.1621040298       -3.3974316586
  N         5.5865307020       16.5337897973       -3.4518015041
  O         4.9558948070       18.2684811828       -2.1209826778
  H        -4.2927443332       11.9063131712       10.7683516373
  H        -4.9623791805       13.3131712749       11.3726429022
  C        -5.9241529012       12.7442237719        9.6201936879
  H         6.6265102008       14.4120729961       15.7379063090
  H         7.8270356350       13.4988458920       14.8591979979
  C         7.5628725780       15.4430848738       14.0711911038
  C        -0.6460081222        7.2549324806       19.0195349248
  S         6.3531346964       14.4321335815       -4.9163673421
  C         5.7009526567       17.3000124502       -4.6732577569
  H        -5.6124851228       12.5392859420        8.5777740541
  H        -6.3085300435       11.7757347665        9.7361250127
  C        -6.8420636849       13.9600828271        9.6271370007
  H         7.3230290291       15.4856459590       12.9574315386
  H         8.6953092284       15.3946298428       14.1638222630
  C         7.1805918568       16.7264894908       14.8081387254
  H        -0.5408557550        6.1705152531       18.8524114325
  C        -1.1669929070        7.6097055780       20.2689144004
  H         6.3839222638       16.8627412777       -5.4081789828
  H         5.9949646080       18.2597457287       -4.4342711576
  C         4.3623458707       17.4107559036       -5.4328895634
  H        -6.6146470550       14.5826437570        8.7569304217
  H        -6.7619585173       14.5193144636       10.5584760229
  C        -8.2560214616       13.5407819852        9.6430170900
  H         7.0443565338       17.5161469059       14.0842959943
  H         6.1874110736       16.5754804163       15.2518448625
  C         8.0850831479       17.3132517506       15.9418310444
  S        -1.5701955845        9.2154793556       20.7829841385
  C        -1.3409959574        6.5978151695       21.3079795156
  H         4.0430142739       18.3441431333       -5.7956420726
  H         3.5504727943       16.9116247528       -4.8510783644
  H         4.4847862333       16.8493799462       -6.3636109868
  H        -8.5580126476       12.8171372854       10.3935003689
  H        -8.8688781689       14.3979869801        9.7259566558
  H        -8.4995605754       13.1533300154        8.6324156795
  H         8.0158541760       16.5725541353       16.7652905432
  H         9.0653180514       17.5646483149       15.6667020418
  H         7.6385667196       18.2448494201       16.3320619033
  C        -2.0579157611        8.5277233105       22.3672413162
  N        -1.9583903506        7.1450146072       22.4308800682
  O        -1.1458795197        5.4388632040       21.1070828309
  S        -2.9388146757        9.3462319509       23.7022836386
  C        -2.0938269756        6.3070090201       23.6114913603
  H        -2.4015549694        5.2912765806       23.3659659711
  H        -2.8766282217        6.7489552106       24.1754557561
  C        -0.8027611365        6.3769062914       24.3785553173
  H        -0.0856143892        5.6366107115       23.9980153790
  H        -0.9244635814        6.3075604497       25.4527254750
  H        -0.2185228809        7.3476858329       24.2521292151
