352
i =
  H        -3.7047014027       14.9212534460       16.2104038028
  C        -3.3437765242       13.8710961414       16.5605438475
  H        -4.1668330030       13.4644466273       17.1315852293
  C        -2.1893850468       13.9232924206       17.5705882481
  C        -2.9839265974       13.1342980323       15.2534918132
  C        -2.5318983068       14.1055274958       19.0591163811
  H        -1.7490399313       12.9261945694       17.3918016314
  H        -1.4015300138       14.6561216634       17.2854310722
  H        -2.9515833193       12.0618907586       15.4382051345
  H        -3.7741976480       13.3690644511       14.4454370258
  H        -2.0671254449       13.4668463575       14.8292179609
  C        -2.4180658748       12.9619261064       20.0431751414
  H        -3.5326136443       14.4928795321       19.1100793984
  H        -1.9161887769       14.8815039742       19.5239465122
  C        -2.8220497744       13.3144046890       21.4870558812
  H        -3.1359277732       12.1964510419       19.7944793365
  H        -1.4236903512       12.5238404900       19.9727111015
  C        -1.7928098434       12.7206255673       22.4393273470
  H        -3.7934088833       12.9349728927       21.7755076321
  H        -2.7770958151       14.3924757188       21.5928593579
  C        -0.5553837679       13.5863302286       22.5262842085
  H        -2.1494082530       12.6029260370       23.4382324567
  H        -1.4950616774       11.7038471288       22.1406728285
  C         0.7420917181       12.8818297024       23.1732657506
  H        -0.2814095774       13.6197345995       21.5135204032
  H        -0.8236453269       14.5604929855       22.9748083683
  C         1.1375521689       11.4856675099       22.4960992687
  C         0.3151878424       12.2203546245       24.4540740061
  C         1.9084891519       13.8054632031       23.3868863377
  C         1.0931729981       10.4632015088       23.3987194703
  C         1.6108093073       11.0770769854       21.2590352830
  C         0.5393056241       10.8781231866       24.6459531865
  C        -0.1559962601       12.8874969794       25.5571101943
  H         2.1063607426       14.2125019639       22.4366446764
  H         1.5847774502       14.6151184858       24.1091425834
  C         3.1727589380       13.0573009111       23.9330330290
  S         1.5318866315        8.8914393308       22.7322696946
  C         1.8838993704        9.6928011701       21.1916915227
  H         1.8655976363       11.8284326442       20.5473087958
  C         0.2257363279       10.3040224587       25.8354430283
  H        -0.2780689775       13.9369311086       25.4495064946
  C        -0.4290610428       12.3744552901       26.7742255166
  H         3.4702126570       12.1507009817       23.3381816056
  H         3.0107815459       12.7218677878       24.9835936661
  C         4.4091559394       13.9878994168       24.0094884492
  C         2.3683167975        8.9770131191       19.9846791026
  C        -0.2911713703       11.0049393145       26.9701333736
  H         0.3558726557        9.2492171917       25.8348310452
  C        -0.8703041615       12.8378754758       28.0312242641
  H         5.1805139371       13.5929263184       24.6696559788
  H         4.1319159444       14.8998409032       24.4518050217
  C         5.0565515037       14.1185332033       22.6296698617
  C         2.3693484484        7.5751802551       19.7226243802
  C         2.8229713168        9.8450812904       18.8545966784
  C        -0.7998103147       10.3776242994       28.2471216939
  C        -0.9794965887       11.7775024864       28.8669420486
  S        -1.2664803873       14.3965931001       28.6433508247
  H         5.7293865860       14.9723028294       22.6832983122
  H         4.3060526524       14.3610338853       21.8631340364
  C         6.0403826606       12.9712174049       22.2531194103
  N         2.1431853821        6.6614157861       20.7140020974
  C         2.6695921182        7.0442707362       18.4645384977
  C         3.1360867858        9.3518659303       17.5578202555
  H         3.0307344276       10.8341334083       19.0288884783
  C         0.3268905788        9.5788476168       28.9861182671
  C        -2.1471871309        9.5984839391       28.0072207987
  C        -1.4963042425       12.2250527932       30.1126490963
  C        -1.5786135235       13.5917969709       30.1771735196
  H         7.0397748422       13.3500307502       22.2954811879
  H         6.0172267003       12.1815377450       23.0656742682
  C         5.7273848000       12.4447705051       20.9168541164
  S         2.1148064924        5.2122703156       19.9674859117
  N         2.5325388598        5.6245939608       18.4410263652
  C         3.0772907754        7.8663474171       17.3435898494
  H         3.6973212584        9.9338831855       16.8676202524
  H         0.5993142695        8.7690378887       28.3523117120
  H        -0.1341723354        9.1447695244       29.8677421031
  C         1.5023089592       10.3663707331       29.3791861274
  H        -2.0104450111        8.8293719286       27.2035708492
  H        -2.3526904570        9.0202552455       28.9207360341
  C        -3.3155335690       10.4152887366       27.4932548946
  H        -1.6866699642       11.5668881215       30.9638564446
  C        -1.9426588454       14.2995175846       31.4112402232
  H         4.6671267145       12.1927768577       20.9342942563
  H         6.3716266082       11.5374598645       20.7829783899
  C         5.9732951312       13.4743829835       19.7290970591
  C         3.2296784212        7.1998931576       16.1331375219
  H         1.6837236546       11.1249172772       28.6300687715
  H         1.1957384631       11.0153167537       30.1770695018
  C         2.7360904293        9.5431670749       29.7198856949
  H        -3.0270954679       10.8335023030       26.5303953222
  H        -3.4410886781       11.1890015166       28.2184607625
  C        -4.6478878575        9.7165262452       27.3339066713
  C        -2.0143491859       15.7006948601       31.5782876986
  C        -2.1817344502       13.5275250461       32.6338077792
  H         4.9142233524       13.8223129725       19.5660912196
  H         6.4928852524       14.2788873622       20.1336741305
  C         6.7667296286       12.8845225331       18.5914173935
  H         3.1953109905        6.1533245681       16.1707767887
  C         3.4925901439        7.5675757922       14.8420589740
  H         2.9822327228        9.0123354801       28.8352894414
  H         2.3868782334        8.6770733715       30.3020542822
  C         3.9204357352       10.2469603876       30.3948703028
  H        -4.5452287133        8.8464824073       26.7473808741
  H        -5.0859452853        9.2507474929       28.2206683385
  C        -5.7338957768       10.5581164046       26.6567281465
  N        -1.7173364163       16.6728267844       30.6577690739
  C        -2.2809326663       16.3178067955       32.8219381445
  C        -2.4320050840       14.0820829963       33.8578886632
  H        -2.1096729882       12.4532462788       32.6250283307
  H         7.3173463203       13.6005263576       17.9421103610
  H         7.4885528034       12.1374776546       19.0254190710
  H         6.1733934832       12.3034270903       17.9383613156
  S         3.6248898326        9.1522919714       14.3506710520
  C         3.5153110318        6.5379796920       13.7389642908
  H         4.2037399737       11.1413930803       29.8945875739
  H         3.6133923889       10.5648125127       31.3680942600
  C         5.1063357525        9.3039783694       30.4757465578
  H        -5.2430187867       11.2913349799       26.0053535093
  H        -6.3250155093       11.0702446244       27.4243584185
  C        -6.6098237978        9.7674854576       25.6879799803
  S        -2.0402899407       18.1744583294       31.1517535983
  N        -2.4240560836       17.7379237699       32.7110017849
  C        -2.4960907340       15.5497001491       33.9545844908
  H        -2.5776827725       13.4687024713       34.7671825785
  C         4.0073955018        8.4927525008       12.7672262372
  N         3.9045172509        7.1569942056       12.6065824828
  O         3.3367898855        5.3136758943       13.8632433799
  H         5.9757098914        9.8798414310       30.4749628668
  H         5.1824056087        8.6520892801       29.5974291781
  C         5.0360601128        8.4138765260       31.8115761912
  H        -5.9703977381        9.3729685087       24.8623701815
  H        -6.9976226329        8.9449717086       26.2125643693
  C        -7.6440421284       10.6479746231       24.9801641361
  C        -2.6869419310       16.2859644548       35.1654738867
  S         4.6108345748        9.3757883405       11.3830424668
  C         3.8691949574        6.4516628472       11.3308937981
  H         5.5450859508        8.9882837783       32.5524132865
  H         3.9832227162        8.4232558525       32.1450661422
  C         5.6036000097        7.0063837366       31.5954945236
  H        -7.1399683235       11.1724331350       24.1621032773
  H        -8.0517959706       11.4531881089       25.6230064600
  C        -8.8238821701        9.9184002791       24.4344111303
  H        -2.3171716690       17.3230768070       35.0304521955
  C        -3.2495592679       15.9871711622       36.4342681749
  H         4.3444479983        7.0519282102       10.5369170484
  H         4.4805332067        5.5585800022       11.4198372015
  C         2.4249457290        6.1764294545       11.0044814828
  H         4.9382481470        6.5833443947       30.8616040901
  H         5.5095852852        6.5071493528       32.5990161763
  C         7.0572708594        6.9837026539       31.2062075104
  H        -9.2692902036       10.2695427757       23.5712957898
  H        -8.6021744808        8.8756826985       24.2658710909
  C        -9.9129806849        9.8000132373       25.4204795009
  S        -3.9247136944       14.5281783797       36.8477406235
  C        -3.2032240006       17.0147922052       37.5499896509
  H         2.2312779040        6.1452954008        9.9482388153
  H         2.1559054655        5.1855185444       11.4398299288
  H         1.8391381506        6.9282402198       11.4651646629
  H         7.8041707266        7.0661449248       31.9422826628
  H         7.0868932164        7.7266204683       30.4820447923
  H         7.2602216765        6.0242654987       30.7114975822
  H       -10.1809375871       10.7595617251       25.8356566741
  H        -9.7966151892        9.0417342697       26.1075272691
  H       -10.8500174573        9.4552440901       24.8707736885
  C        -4.2055659492       15.2790505445       38.4357326096
  N        -3.8008351029       16.5301129397       38.6222581762
  O        -2.6875699361       18.1246521972       37.4282879025
  S        -4.8218508588       14.4121576894       39.8678727751
  C        -3.7337461628       17.3596590510       39.8520062724
  H        -3.8464317303       18.3997148722       39.6249838468
  H        -4.5943138904       17.0762918399       40.4526476171
  C        -2.4920591196       17.0919377497       40.6826034894
  H        -1.5754433781       17.1085216045       40.1594450406
  H        -2.5223666541       17.7844584451       41.5066283367
  H        -2.4388076111       16.0715126159       41.1193529779
  H         8.0917646370       11.1132128040        4.0163152628
  C         8.5683398722       10.1269940720        4.0552910279
  H         7.8106525713        9.3838137117        4.0156125223
  C         9.3268980792       10.0802909271        5.4129670662
  C         9.4114829525       10.1738187503        2.7983935555
  C         8.4416485918       10.3787942450        6.6345887536
  H         9.8115539211        9.1354104339        5.5292043467
  H        10.0816795926       10.8481166734        5.4052604246
  H        10.1614254362       11.0429718311        2.7662297665
  H         8.7039150412       10.2555095897        1.9510912344
  H         9.9232587674        9.2323443496        2.7159331304
  C         7.5256035031        9.2091827527        7.0302891298
  H         9.0340905594       10.6498100751        7.4343776916
  H         7.8168906940       11.2289584722        6.4100667251
  C         6.5153481334        9.6284992492        8.1353119527
  H         8.1146063395        8.4050143996        7.3433960488
  H         7.0697097409        8.9344522782        6.0918121872
  C         5.3896452857       10.6128785837        7.8339353902
  H         7.0844446904       10.0677957059        8.9711811361
  H         6.1604753128        8.7391388309        8.6104693587
  C         4.1412651789        9.7994832890        7.4430174942
  H         5.1786518477       11.1561114497        8.7132910680
  H         5.6224238147       11.3516816185        7.1101530120
  C         2.9120030136       10.6449206313        7.2383826140
  H         3.9238525700        9.1373743351        8.2734260365
  H         4.4121020298        9.1118423897        6.6824485744
  C         3.2297636612       12.0192768985        6.6360603749
  C         2.4440245381       11.2780494947        8.4603976052
  C         1.8107391260        9.9154691767        6.4736219573
  C         2.9951465883       13.0918442442        7.4722157759
  C         3.7443827870       12.4669870770        5.3630708518
  C         2.4449244610       12.6355551056        8.6221043855
  C         1.8784106071       10.5990885149        9.5634968282
  H         2.2361272221        9.5591843009        5.5657894341
  H         1.5495474237        9.0478694856        6.9806343010
  C         0.5671548322       10.8627087537        6.2237211047
  S         3.3698266490       14.6611626123        6.7380888623
  C         3.8181961955       13.8744655545        5.3181976032
  H         3.8883494173       11.7845342935        4.6212910871
  C         1.8788763492       13.2108112185        9.7149945805
  H         1.9342119910        9.5018434037        9.5822432314
  C         1.3972996185       11.2489231143       10.6998225936
  H         0.7520342620       11.8362115441        5.7745429390
  H        -0.0319326853       11.1093354359        7.1576712906
  C        -0.3381873151       10.5066642644        5.0849721147
  C         4.2434935141       14.5893982062        4.0696898843
  C         1.3921291863       12.6191907025       10.8529188768
  H         2.0973070408       14.2262820873        9.7017768480
  C         0.9205028576       10.8871867355       11.9159852968
  H        -1.0981360060       11.2430863062        5.0608139401
  H        -0.8637305773        9.5573791975        5.3030861088
  C         0.3659931764       10.4369331772        3.6704069559
  C         4.2010500073       15.9872544256        3.8043552564
  C         4.7731693633       13.7110925480        2.9504250550
  C         0.9432531993       13.2831825665       12.0847450798
  C         0.6825300154       11.9460601985       12.7419904118
  S         0.8237171694        9.4077868169       12.6605504833
  H         1.2145598876        9.7692509101        3.6632423122
  H         0.8603656702       11.3814193488        3.5310888808
  C        -0.5570814462       10.0061247699        2.5712286606
  N         3.7573776510       16.9585869285        4.7060049821
  C         4.5895874253       16.5471406188        2.6088581486
  C         5.0170606361       14.3180740713        1.7161709960
  H         5.0764771021       12.6760954190        3.0152729666
  C        -0.2438918092       14.1252594318       11.8976967182
  C         2.0934585014       14.0154749653       12.8356355736
  C         0.2179528778       11.5529330010       14.0005439742
  C         0.3028124055       10.2014873998       14.1414979668
  H        -1.1545257063        9.1410369452        2.9224517918
  H        -1.3304952117       10.7308444425        2.4403707117
  C         0.0125916448        9.8054974761        1.1962262288
  S         4.0240505881       18.4068554520        4.0393622050
  N         4.3879881443       17.9152747000        2.5480299393
  C         4.9791986067       15.7745251233        1.4737414813
  H         5.3541890588       13.7264059241        0.9271868649
  H        -0.0503151456       14.8930768378       11.2010657156
  H        -0.4856515998       14.7427208645       12.7677088859
  C        -1.4912664691       13.3115372263       11.5298632730
  H         2.3154194612       14.9439779148       12.3730244402
  H         1.7107366549       14.3410582216       13.7810899305
  C         3.3760755861       13.2084831316       13.0481762324
  H        -0.0972904071       12.2165270979       14.7406932156
  C         0.0050490453        9.4623721787       15.4110757783
  H         0.8491605466        9.1512572858        1.2599130510
  H         0.2975391694       10.8627920859        0.8352753802
  C        -0.9613132327        9.2220021413        0.2436903204
  C         5.0588835795       16.4253496660        0.1851592730
  H        -1.2935798914       12.6665160363       10.6348947082
  H        -1.9614358083       12.7646613905       12.3964784590
  C        -2.5842739911       14.2121644937       11.0314322857
  H         3.8581866521       12.8208872143       12.1327692447
  H         3.2251216562       12.2994254706       13.6237578472
  C         4.4313039188       14.0309579988       13.7564711294
  C        -0.0313446800        8.0807204172       15.5217783319
  C        -0.1904500493       10.1734024216       16.6448729989
  H        -0.4367384004        8.6521712488       -0.5314717364
  H        -1.6450088014        8.6456164866        0.8573896546
  C        -1.7514315109       10.3192916012       -0.4390558329
  H         4.9693630686       17.4859103899        0.2210262055
  C         5.2995244637       15.8509383280       -1.0288872819
  H        -2.3154595558       14.8256104349       10.1752301301
  H        -2.9272369168       14.8358225220       11.8482936887
  C        -3.8230618264       13.3431769358       10.6070503285
  H         4.6627345172       14.8108067639       13.0493838513
  H         4.1752761046       14.5427453277       14.6733222420
  C         5.7015802298       13.2996724593       14.1354327568
  N         0.2131307891        7.1901116943       14.5207990509
  C        -0.2965576085        7.3616089118       16.6569589629
  C        -0.3398117613        9.4978712288       17.8308359107
  H        -0.0585634960       11.2058668772       16.7812486443
  H        -1.7889206169       11.2400947299        0.1814328586
  H        -2.7620153960        9.9211924585       -0.5868151554
  H        -1.3293915630       10.7655641651       -1.3380383694
  S         5.7261421532       14.2441152004       -1.4709329785
  C         5.3294410552       16.7843473695       -2.1479804092
  H        -3.5453673554       12.8195559070        9.7196180618
  H        -4.0751707408       12.6047414353       11.2940684704
  C        -5.1056572787       14.1412526632       10.2698026148
  H         6.2730949380       13.0156360754       13.3065037573
  H         5.4470642270       12.3486739255       14.5512006608
  C         6.5232770945       14.0854211411       15.1453054886
  S         0.1544566460        5.6467222948       15.0243302306
  N        -0.3067040968        5.9687995339       16.5352725221
  C        -0.5866773372        8.0280427613       17.8919869826
  H        -0.3366475131       10.0405739684       18.7133308418
  C         5.9852785434       14.8704578798       -3.0485332965
  N         5.7424721386       16.2078735738       -3.2471429615
  O         5.1787886843       18.0092856990       -2.0516983374
  H        -5.6564782593       14.3614060015       11.1795516678
  H        -4.8436000701       15.0869122900        9.9287545402
  C        -5.9117509128       13.3799574140        9.1591148233
  H         5.8712851566       14.3376427595       16.0052071329
  H         7.3644234248       13.4849116913       15.5889480085
  C         7.2893503285       15.2469344155       14.5449370236
  C        -0.8971711464        7.2617707424       19.0428134212
  S         6.5031828682       13.9123754044       -4.5344802748
  C         5.6908874780       16.9524434244       -4.5070627621
  H        -5.2563116642       13.0257638912        8.4190104154
  H        -6.3352663439       12.5071123682        9.6727391858
  C        -7.1345646437       14.1243356822        8.5835435186
  H         6.8816339848       15.5119049644       13.6214467050
  H         8.2300243457       14.7960271662       14.2185549433
  C         7.4158021289       16.4164173332       15.5881885610
  H        -0.6278073783        6.2592388130       18.9633837153
  C        -1.3640921781        7.5611243212       20.2847416051
  H         6.6592215557       16.7790080132       -5.0932128789
  H         5.6087379037       18.0013208563       -4.2868417246
  C         4.4498926985       16.6423441348       -5.3359364306
  H        -7.5303136709       13.6434919525        7.6712017177
  H        -6.8314319431       15.0928071490        8.2503142586
  C        -8.3316914683       14.2071938265        9.5651737464
  H         6.4882924354       16.9406911078       15.9425777692
  H         7.7715870224       15.9244032632       16.4859856469
  C         8.4383586828       17.5135447802       15.1709592353
  S        -1.9515553589        9.1540853012       20.7585816917
  C        -1.6099833870        6.4909930364       21.2460475380
  H         3.5050807335       17.0958205620       -5.0590037677
  H         4.1843417748       15.6059312461       -5.2616460403
  H         4.7642583789       16.8002348794       -6.3972444611
  H        -9.2252221516       14.6345181730        9.0076289988
  H        -8.6127495744       13.1697919295        9.8048127358
  H        -8.1270302946       14.8431616161       10.4072769773
  H         7.8165088517       18.3990179603       14.8269564424
  H         9.0581884552       17.9415491115       15.9270884469
  H         9.1477214221       17.1674450476       14.3565652682
  C        -2.2200429137        8.3273173068       22.3231611675
  N        -2.2592506143        6.9663592848       22.2979071182
  O        -1.2095252928        5.3212975448       21.0811963593
  S        -3.0097725801        9.1741711113       23.6732151196
  C        -2.4668371871        6.0352075479       23.3830169394
  H        -2.9081498367        5.1351240400       23.0452576744
  H        -3.2979982016        6.5076864550       23.9999283091
  C        -1.1874061493        5.9213325127       24.2046231234
  H        -1.3865440787        5.6811387908       25.2473151732
  H        -0.7964291674        6.9075886911       24.0937367916
  H        -0.6001842168        5.1342791949       23.8405398638
