352
i =
  H        -3.1627133636       15.1557641225       15.5839679291
  C        -2.9238125655       14.1152873591       15.7209098010
  H        -3.7306678169       13.5231764896       16.0984510934
  C        -1.8417985191       13.9443997299       16.8497732714
  C        -2.6665464613       13.5789970031       14.2625846882
  C        -2.5042809668       13.7859442588       18.2186265237
  H        -1.2323730806       13.0745651150       16.6418505648
  H        -1.1206699206       14.7357089084       16.8907200631
  H        -1.8476279008       14.0766373880       13.8300641303
  H        -2.4765026378       12.4708687242       14.1914307055
  H        -3.4823011566       13.7836657343       13.6001654717
  C        -1.5433438844       13.3608507239       19.3060251707
  H        -3.2796918157       13.0113368561       18.2631033562
  H        -2.9733038171       14.7682336686       18.5463466208
  C        -2.0849134080       13.4396362593       20.6731815415
  H        -1.4935601362       12.2772690680       19.1163418754
  H        -0.5438329464       13.8290468256       19.2923600869
  C        -1.1323241709       13.0537615373       21.7988921044
  H        -2.9343029512       12.7630561273       20.7582919510
  H        -2.6729129384       14.3570159228       20.8905522529
  C         0.0584781219       14.0608276289       22.0290135353
  H        -1.6931224459       12.9076722049       22.7203596487
  H        -0.6925388337       12.0827172433       21.6197333039
  C         1.3062974803       13.4915071940       22.7225106393
  H         0.4443751207       14.5295054490       21.1313451687
  H        -0.2077433425       14.8606458482       22.6604530544
  C         1.7262056395       12.1506784435       21.9719182197
  C         0.9190700234       12.7579079221       23.9487834092
  C         2.4318151824       14.4862952758       23.0650785181
  C         1.4401487550       11.0327925228       22.7719530823
  C         2.3577334219       11.7193618111       20.7925535793
  C         0.9692378704       11.4261798942       24.0586926016
  C         0.4773511057       13.3255248548       25.1219761440
  H         2.6905179431       15.1316646442       22.2708249021
  H         2.0538534811       15.3013526025       23.7716023043
  C         3.7123571309       13.7583913161       23.6400387822
  S         1.9102147763        9.4927992321       22.0539761115
  C         2.3938725735       10.3366254054       20.6508786529
  H         2.7753510905       12.4520133165       20.1633392929
  C         0.5064277524       10.7182660478       25.1385338257
  H         0.5448053710       14.3258643373       25.3085871314
  C         0.1442159571       12.6310356103       26.2881357624
  H         3.8148710389       12.7162088599       23.2771145273
  H         3.4931288665       13.7070699035       24.6747758436
  C         4.9581975013       14.6195066780       23.5486205348
  C         2.7914611505        9.6361477145       19.3632320118
  C         0.0754716926       11.3022092329       26.2981343891
  H         0.4047265448        9.6471927006       25.0111035688
  C        -0.3106534071       12.9806525321       27.5623274947
  H         5.8040730311       14.2806891150       24.1309333814
  H         4.6580980277       15.5613636945       24.0650899950
  C         5.4926872669       14.9759689013       22.1540971761
  C         2.7603407422        8.2645006282       19.1248905113
  C         3.2332565573       10.4394250245       18.1490474462
  C        -0.4652279490       10.5084401417       27.4778726177
  C        -0.7139314800       11.8188320677       28.2144232362
  S        -0.7256224704       14.4151454001       28.3414248354
  H         6.2614231320       15.7921660364       22.2745834332
  H         4.7221888565       15.6010937567       21.6399191491
  C         5.9379877703       13.6843024449       21.4271323572
  N         2.4934079370        7.3137377363       20.1574540325
  C         3.0345807056        7.6582225872       17.8699995670
  C         3.4814939490        9.8233049965       16.9257438794
  H         3.3319486759       11.4889797489       18.2026566135
  C         0.5774292610        9.6210073376       28.1951701101
  C        -1.7839179337        9.8270009773       27.1530440445
  C        -1.1022479679       12.1446369750       29.5412359793
  C        -1.2278721052       13.4981609394       29.7315766521
  H         6.8743917612       13.2937690610       21.9304837388
  H         5.2141943655       12.9588863252       21.6953285052
  C         5.8882438087       13.7052903344       19.9017789536
  S         2.5514076014        5.8225580935       19.4728011899
  N         2.8597438193        6.2701151137       17.9238390255
  C         3.3254587449        8.4015344195       16.7054794153
  H         3.7048803012       10.4049545944       16.0936682593
  H         0.9228795263        8.7352073925       27.7044444130
  H         0.0735282142        9.2763458808       29.1358173860
  C         1.9584648007       10.3084868335       28.4948544897
  H        -1.6257848827        9.1240856123       26.4011727833
  H        -2.0691783882        9.2263791217       28.0662233888
  C        -2.9425035547       10.6195899582       26.6560625119
  H        -1.1626701715       11.3600464317       30.2684993683
  C        -1.5712472442       14.0971402032       31.0584222103
  H         5.3400941432       14.5313297889       19.5441067693
  H         5.5089337109       12.7022558093       19.6771450557
  C         7.3007537867       13.7654417720       19.3112110903
  C         3.4752470838        7.7519782931       15.4530168397
  H         2.6644103822       10.3488711333       27.6482971221
  H         1.7658622801       11.3673884565       28.6786918892
  C         2.7800864503        9.8101833777       29.6765855188
  H        -2.5485674479       11.1547219963       25.7759314631
  H        -3.1911064248       11.3942770257       27.4078988713
  C        -4.1359067207        9.7643974742       26.3786119256
  C        -1.7246265406       15.5111864189       31.2828493747
  C        -1.6556277450       13.2596253392       32.3290824518
  H         7.6298516375       14.7513010676       19.5082254668
  H         8.0483910864       13.0975559897       19.6795702408
  C         7.1191509624       13.4907253311       17.8099219252
  H         3.4128454627        6.6809537719       15.5098419747
  C         3.8586644177        8.1999767223       14.1928364700
  H         3.0485269625        8.7490372042       29.4039834436
  H         2.1853799911        9.8734390771       30.6267866844
  C         4.1271080328       10.5253699343       29.8882268184
  H        -3.8527321445        8.9678611879       25.6500832284
  H        -4.4514485572        9.4498625880       27.3278064717
  C        -5.2637845760       10.5756113859       25.7034002843
  N        -1.5670724687       16.5035666073       30.3013480029
  C        -2.0386632700       16.0731786467       32.5096709052
  C        -2.0015725802       13.8567358050       33.5802971459
  H        -1.5318872799       12.1402653739       32.3759181572
  H         7.6225717240       14.2405861168       17.1424116457
  H         7.6290481315       12.6178589421       17.4019502987
  H         6.0700158167       13.3681070565       17.5537061564
  S         4.2568809808        9.8105675941       13.6976259766
  C         4.0411520012        7.1658544110       13.1230112611
  H         3.9351815908       11.4535476850       29.3002605902
  H         4.2508245696       10.7872018262       30.9525701138
  C         5.3901885130        9.8560857994       29.3339136100
  H        -4.7358554251       11.1612186493       24.9173422536
  H        -5.5941878959       11.2786528157       26.4833994300
  C        -6.4227846384        9.8036163053       25.2850447295
  S        -1.5208993842       17.9817286317       31.0621180729
  N        -2.0662655239       17.4797693008       32.5105720409
  C        -2.1748658247       15.3276886919       33.7051792260
  H        -2.1468609652       13.2057081602       34.4076336395
  C         4.6711128213        9.1011427922       12.1104170830
  N         4.5035550349        7.7884718543       12.0318326135
  O         3.8353860435        5.9748040092       13.2905915544
  H         6.0470249119       10.5986931424       28.7982899948
  H         5.1008417802        9.2327318480       28.4632202937
  C         6.2604172493        8.9548979017       30.2973491312
  H        -6.2583416521        9.2914884893       24.3725929781
  H        -6.7044243526        9.0914846508       26.0671446347
  C        -7.5388259154       10.7579247907       24.9051934085
  C        -2.4346172675       16.0037912059       34.9447308054
  S         5.2056662792       10.1314338116       10.7328702109
  C         4.7718538284        7.0274991805       10.7990930203
  H         7.2200760203        8.6433678540       29.8705044856
  H         6.6261075864        9.5051181215       31.1508058100
  C         5.4357993686        7.7766682163       30.8833654019
  H        -7.1566222104       11.1061756309       23.9359045371
  H        -7.7236997955       11.6124860377       25.6178599244
  C        -8.8998665307       10.1188322824       24.6779522826
  H        -2.3146861286       17.0433855618       34.8698654300
  C        -3.1336252118       15.5926572369       36.0656016613
  H         5.5670184411        7.4858422870       10.2035101223
  H         5.1350807531        6.0464256736       11.0135949200
  C         3.5280564222        7.0932429905        9.8596394032
  H         4.9774987143        7.2541850726       30.0792049663
  H         4.6543487286        8.0399743142       31.5590185383
  C         6.4443790848        6.8319100784       31.6355852536
  H        -9.4441292463       10.4464599566       23.7802254647
  H        -8.6318343029        9.0680530117       24.5318835743
  C        -9.8257498084       10.0640774603       25.9098693060
  S        -3.8171116256       14.0325634174       36.1947455216
  C        -3.2291153735       16.5664462653       37.2409839460
  H         3.6581630652        6.5288437449        8.9278353953
  H         2.6448234993        6.6345897373       10.2863014931
  H         3.2105105872        8.1263799963        9.5064052706
  H         6.9003206237        7.3411012363       32.5687812408
  H         7.2750489643        6.5675745712       30.9412806412
  H         5.9278953458        5.9548907364       32.0043151722
  H       -10.8142569085        9.9212185569       25.4771262979
  H        -9.9042380780       10.9786847262       26.4947836195
  H        -9.6257083614        9.2788329314       26.6024968654
  C        -4.3947406537       14.6511825933       37.7253888309
  N        -4.0864213385       15.9333886623       38.0563798432
  O        -2.6809060318       17.6529809253       37.3620010652
  S        -5.2461410123       13.6461627742       38.8892082892
  C        -4.4180735915       16.6176277322       39.3248712672
  H        -4.5991668872       17.5941846187       39.0630221388
  H        -5.3386502784       16.2693755048       39.8951525383
  C        -3.2370482495       16.6360786811       40.2977503876
  H        -2.3332052335       16.3661424109       39.7694327139
  H        -3.2148359080       17.6557384234       40.8409743391
  H        -3.4233814704       15.9414786722       41.0635642810
  H         7.5393082918       11.8803617073        2.6171213654
  C         7.8893263188       10.8975375490        2.7343554651
  H         7.0893467991       10.1668577947        2.9417627290
  C         8.7922427593       10.8351706518        3.9604127823
  C         8.5524909204       10.5359379338        1.3928251336
  C         8.0325985380       11.1070070697        5.2470704574
  H         9.4919735523        9.9911896519        3.8682492810
  H         9.5134106566       11.6686692619        3.8929253998
  H         9.1667293198       11.3784405777        1.1936856941
  H         7.7650329626       10.4041948531        0.6242373062
  H         9.1090480093        9.6149582161        1.4257525607
  C         7.5926076959        9.7599811590        5.8800929634
  H         8.7651686483       11.6627131317        5.8807826829
  H         7.2421149259       11.7321193529        5.1364835886
  C         7.0327888989        9.9421765849        7.3284817683
  H         8.4682259403        9.0807487708        6.0080761661
  H         6.8445922847        9.2067610830        5.2723175704
  C         5.7071343828       10.7648245426        7.3277430410
  H         7.7211138331       10.5119501798        7.9510218097
  H         6.8695184702        8.9717971621        7.7679178586
  C         4.4734266090       10.0195168817        6.8097266750
  H         5.4122440719       11.1623770314        8.2626880669
  H         5.7457498504       11.6973031133        6.7342317707
  C         3.2068140389       10.8946948159        6.5267615835
  H         4.3174221592        9.1747992051        7.4337955499
  H         4.6415151823        9.5640122571        5.8426514544
  C         3.5350112888       12.2469378839        5.8969744920
  C         2.6752991040       11.5146357709        7.7906431455
  C         2.1389366837       10.2049876764        5.6878967931
  C         3.1704247511       13.2767524041        6.7317960964
  C         4.0777676716       12.7381956147        4.6916008312
  C         2.6938294512       12.8585426507        7.9670824345
  C         2.1713229542       10.8319624769        8.9219325095
  H         2.5922074889        9.8235798342        4.7904830585
  H         1.8601602840        9.3404809470        6.3028784125
  C         0.8351396799       11.0375873655        5.4325205216
  S         3.4456508513       14.8549657602        6.0530083624
  C         4.0901176812       14.1067259086        4.6128545895
  H         4.3739474932       12.0643497587        3.8941296958
  C         2.2189523002       13.4399949576        9.1036112558
  H         2.0066543870        9.7938866058        8.9224794043
  C         1.8881459559       11.4310762944       10.0965295151
  H         1.0183133854       12.0641523446        5.2955961471
  H         0.2232056256       11.0877325576        6.3601401606
  C        -0.0665647668       10.6411579291        4.1663826404
  C         4.4808409401       14.9014002399        3.3797174294
  C         1.8860732351       12.7584293138       10.2723950747
  H         2.2112309925       14.5267787675        9.1434724886
  C         1.4861597894       10.9978933875       11.3577271139
  H        -0.8764884150       11.3790496033        4.1375449386
  H        -0.7082534704        9.8398729091        4.3859878033
  C         0.7769630456       10.4962397407        2.9070415397
  C         4.4037195792       16.2895529798        3.2652601825
  C         4.8812119293       14.1430081500        2.1635645141
  C         1.4714510781       13.3980034972       11.6164776372
  C         1.1763979593       12.0684083659       12.2081846490
  S         1.1633912358        9.5058256281       12.0820758708
  H         1.0535925648        9.4342916518        2.8818813195
  H         1.7088116646       11.0259385437        2.8666227541
  C        -0.0482292202       10.9327634810        1.6809856993
  N         4.0233613782       17.1148439502        4.2661063394
  C         4.6589682027       16.9702985813        2.1369947779
  C         5.0423327020       14.7994066020        0.9955437916
  H         4.9823493200       13.0712468534        2.1634029829
  C         0.2575993492       14.3385845977       11.5005048500
  C         2.7042371084       14.0957488235       12.3167658749
  C         0.6958930772       11.6235278823       13.4736666375
  C         0.7042463980       10.2590651547       13.5539397857
  H        -1.1754254387       10.8339253534        1.7112893498
  H         0.1730114347       11.9200615880        1.4806005613
  C         0.2765643197       10.1002499100        0.3408157477
  S         4.1394221242       18.6778238611        3.8595774551
  N         4.5739459650       18.3325287512        2.3259943693
  C         4.9493989220       16.2766003102        0.9608573914
  H         5.4600038105       14.3054868672        0.1776991535
  H         0.4970419995       15.1800413899       10.8094615513
  H         0.0335753323       14.7848809082       12.4435009602
  C        -1.0260511772       13.6521700229       11.0726831643
  H         2.9313647183       15.0522378125       11.8649752317
  H         2.4210629858       14.2862560763       13.3621628418
  C         3.9512068836       13.1642037440       12.5845210328
  H         0.5325188892       12.3155435582       14.2792197585
  C         0.2691457622        9.4870291553       14.7155786328
  H        -0.2499727514        9.0934686122        0.4316604833
  H         1.3309532690        9.8666716654        0.2007456351
  C        -0.1688919872       10.7401990831       -0.9445014591
  C         5.1526387848       17.0380432766       -0.2159377786
  H        -0.8331036644       13.0012445255       10.2330708996
  H        -1.4827563941       13.0836613616       11.8252025262
  C        -2.0060330207       14.6636454747       10.6175212283
  H         4.5997045637       13.0569204862       11.6978708230
  H         3.5849572399       12.1564519447       12.8115450542
  C         4.8097213226       13.7517522403       13.7008140988
  C         0.1769788622        8.1041226625       14.8910958491
  C         0.0086511730       10.2976839450       15.9969408309
  H         0.3297982407       11.7167233825       -1.1807925569
  H         0.1519927431       10.0138214124       -1.6788726710
  C        -1.6683799442       10.9782358295       -1.0884399987
  H         4.9030413163       18.1256329588       -0.1683616388
  C         5.5010106508       16.7063860015       -1.4999035817
  H        -1.6630177189       15.5089228693        9.9915908409
  H        -2.4007105468       15.0055571908       11.5224867288
  C        -3.1349788901       13.9140835460       10.0012893596
  H         4.2362869189       14.5600347588       14.2057640774
  H         5.1121127254       12.9902527976       14.4876896457
  C         6.0972282431       14.4214295295       13.0958928674
  N         0.4485139028        7.1284621824       13.9582777360
  C        -0.0189472200        7.4918264465       16.1008809062
  C        -0.3405766396        9.6579304018       17.1817575999
  H         0.1947827169       11.3417461109       16.0333782799
  H        -1.9081587285       11.6224149712       -1.9345263002
  H        -1.9887249626       11.6791969307       -0.3208997880
  H        -2.2642255144       10.0586710448       -1.1350524126
  S         5.8235146279       15.1121960321       -2.1820203854
  C         5.5793781802       17.7187276306       -2.5512791798
  H        -2.7685917118       13.6712783172        9.0527874134
  H        -3.3032108429       13.1056476519       10.6880048558
  C        -4.4055137873       14.7968105947        9.8650617339
  H         5.8061528793       15.0009545700       12.1440833748
  H         6.7918810453       13.6428417122       12.8286568208
  C         6.7660697820       15.2939998617       14.1555125119
  S         0.2775334362        5.5862494961       14.5446512780
  N        -0.0428870973        6.0857865121       16.0121232422
  C        -0.2545673259        8.1417830657       17.3325724469
  H        -0.4050745494       10.1786846609       18.1549597492
  C         5.8998242291       15.8237321641       -3.7432736508
  N         5.9128456144       17.1711402780       -3.6966157135
  O         5.4568001592       18.9317206819       -2.2944414657
  H        -4.3434193762       15.4650689451       10.6743338181
  H        -4.4310629108       15.4112373717        8.9983425821
  C        -5.6806213320       13.9841282865        9.9814515929
  H         6.0554303928       15.9413913703       14.5068188546
  H         7.0165846024       14.7466194685       15.1195188277
  C         8.0853012844       15.9044667781       13.6043419631
  C        -0.4028250428        7.4432018978       18.5333009678
  S         6.3843104242       14.9667518377       -5.2213075430
  C         5.8546830642       17.9734778652       -4.9598900698
  H        -5.5786014260       13.0217755042        9.4968958018
  H        -5.9286547864       13.7333537329       10.9732076481
  C        -6.8540345866       14.7901897007        9.2983412926
  H         8.1763884962       15.7242149018       12.5880315769
  H         8.9423584993       15.3901583932       14.1568073350
  C         8.1982806761       17.4534698611       13.7627138545
  H        -0.0236061397        6.4497910908       18.4974803031
  C        -0.9776439413        7.7296798234       19.7599280434
  H         6.5566134673       17.6194736574       -5.6437436525
  H         6.3050723137       19.0342019567       -4.7953390243
  C         4.3917991559       18.0917541339       -5.4375637552
  H        -7.0911099464       14.5164793875        8.2465342210
  H        -6.6063306135       15.7959635584        9.3323523510
  C        -8.1998379626       14.6900056440        9.9955688164
  H         9.1490350188       17.8215585241       13.4526175597
  H         7.4919808754       17.8825831177       13.0984996057
  C         7.8752356690       17.9967630870       15.1844533368
  S        -1.5941226513        9.2546208986       20.1267306582
  C        -1.1930331461        6.6810157531       20.7541785498
  H         3.8929922112       17.3305238833       -4.8478040554
  H         4.3484029899       17.8239814606       -6.4619918506
  H         3.9050205666       19.0341733418       -5.2765831174
  H        -8.3866290444       13.8169603272       10.5613859096
  H        -8.1659194061       15.4956742929       10.6655486833
  H        -8.9679277541       14.8959758487        9.2212700277
  H         8.1547535371       17.3767252449       16.0445811123
  H         8.3537658763       18.9780077818       15.3508464637
  H         6.8021898659       18.1500861722       15.2607009632
  C        -1.9172214118        8.5756228245       21.7275823687
  N        -1.7652459537        7.2110317377       21.8714316323
  O        -0.8254951543        5.5270901610       20.6043727486
  S        -2.6974800633        9.3920416261       23.1028885662
  C        -2.0426313272        6.3846805057       23.0445717309
  H        -2.2525280842        5.3568205571       22.7534568836
  H        -2.9923441039        6.6272901322       23.5353370165
  C        -0.7820670419        6.4356316961       23.9070538756
  H        -0.8574816886        7.3654237896       24.4145826325
  H         0.0984349195        6.4750820627       23.2989484204
  H        -0.7472367393        5.6542170459       24.6431402589
