352
i =
  H        -3.6725404637       14.3907071238       16.1611688389
  C        -3.3346266598       13.3801317871       16.0997557183
  H        -4.0861470870       12.6984967835       16.3502962866
  C        -2.1769491909       13.3767619977       17.0763678324
  C        -2.7970917091       13.0493799616       14.6977847390
  C        -2.7032533712       13.4819431243       18.4790737817
  H        -1.5957089024       12.4391278792       16.9275604628
  H        -1.5097106325       14.1842490899       16.9307395193
  H        -2.8755270883       11.9994103652       14.5659592018
  H        -3.4976346309       13.4837331223       13.8989972162
  H        -1.7935602850       13.3627853180       14.5160347240
  C        -1.6442667481       12.9847131333       19.4004008819
  H        -3.6482295483       12.8987158950       18.5766179215
  H        -2.9585606517       14.4887103538       18.7649714633
  C        -2.0293002953       13.3272255226       20.8306899840
  H        -1.5030533932       11.9331822691       19.2750558970
  H        -0.7726143589       13.5014334665       19.0938997658
  C        -1.2176716969       12.7602585956       22.0134893429
  H        -3.0783772540       13.0156761333       20.9959565752
  H        -2.0278224672       14.3753007693       20.9010962171
  C        -0.0209276527       13.5258045224       22.3130891901
  H        -1.7178277874       12.6859008430       22.9474338940
  H        -1.0063801244       11.7006137250       21.8219693881
  C         1.1693904887       12.8325915239       23.1147789717
  H         0.3494558007       13.7261800697       21.3333518927
  H        -0.2219303541       14.5195954623       22.6876153850
  C         1.5282017502       11.5366932157       22.4608139948
  C         0.6246542931       12.1626490944       24.3043047073
  C         2.4556170519       13.7620859829       23.2892413913
  C         1.3170711516       10.4172305682       23.2595935342
  C         2.1574514224       11.1390532852       21.2671192998
  C         0.7823824555       10.8103041877       24.4686269546
  C         0.2404683931       12.8228420679       25.4851937948
  H         2.8251284396       14.1021147988       22.2727598828
  H         2.2239066318       14.6095726032       23.8733791845
  C         3.6567830012       13.0279367630       23.9080020640
  S         1.6634856876        8.9300912849       22.5246034493
  C         2.2443073990        9.7688964260       21.1319744931
  H         2.3911103236       11.8552840854       20.4933278501
  C         0.4442750012       10.1818189606       25.6185836935
  H         0.3324052914       13.9079181491       25.5465474829
  C        -0.1173920240       12.1281929313       26.6253904543
  H         4.0998379487       12.1691816401       23.3558761204
  H         3.3287425232       12.7005296122       24.9256805061
  C         4.8918458626       13.8788231068       24.1969274865
  C         2.8268505630        9.1319105975       19.9437103241
  C        -0.0343106548       10.7656731891       26.7814356719
  H         0.6394606454        9.1787675809       25.7505721715
  C        -0.4503738270       12.4973630716       27.9627074179
  H         5.5875701435       13.3783175422       24.9018215414
  H         4.5509509736       14.7987503845       24.6894547946
  C         5.6753179501       14.3249351839       22.9646410890
  C         2.8214895103        7.7163006531       19.6845438388
  C         3.1979566886        9.9695383499       18.7249555573
  C        -0.2923664092       10.0578624185       28.0825871906
  C        -0.5001018353       11.4346590463       28.8239337786
  S        -0.8044691121       14.0043928508       28.6969147841
  H         6.4561224890       14.9982046038       23.3101626067
  H         5.0048263657       14.9350147463       22.2773895308
  C         6.2701493279       13.1725337897       22.1517769996
  N         2.6208422021        6.7439236327       20.6382588702
  C         2.9531665955        7.1132285116       18.4476125027
  C         3.5564340990        9.3407936019       17.5495146529
  H         3.3556241087       11.0225996331       18.9622321276
  C         0.9838458218        9.2320330527       28.5259996307
  C        -1.5292790487        9.1457099598       28.0202207089
  C        -0.7993272429       11.8210002632       30.1505285255
  C        -1.0628933914       13.2061745638       30.1844572075
  H         7.3893267650       13.3992562722       22.1981905277
  H         6.0616963631       12.1626286348       22.5931053971
  C         5.6963407024       13.1508199265       20.6873846529
  S         2.4862877750        5.2670611575       20.0145892364
  N         2.8190237208        5.7113743339       18.5128550405
  C         3.2196750632        7.8852236468       17.2950293015
  H         4.0939528388       10.0036686202       16.9157503039
  H         1.4619196549        8.7160160489       27.6899092654
  H         0.6955406175        8.4216073828       29.2550295859
  C         2.0791590403       10.0008006309       29.1638051225
  H        -1.5701462563        8.4985253831       27.1707130978
  H        -1.6355466018        8.5897092022       28.9028058519
  C        -2.8234485372       10.0276262823       27.8524345586
  H        -0.9323812703       11.0301161052       30.9112573142
  C        -1.4318776285       13.9528410777       31.4010038932
  H         4.7742613537       13.7143355861       20.5765527385
  H         5.4721194092       12.1236339224       20.4875040690
  C         6.7293216648       13.4479026379       19.5240429360
  C         3.3317186842        7.2271990649       16.0339016317
  H         2.5705451065       10.6922907378       28.4846250820
  H         1.8112451688       10.5210716152       30.0586431925
  C         3.2748538826        9.1687186609       29.5437094168
  H        -2.6217779973       10.8794136909       27.2581562232
  H        -3.1239767917       10.4768107632       28.8226368044
  C        -3.9473127149        9.2889952537       27.2242059906
  C        -1.4058916202       15.3756044169       31.5135197342
  C        -1.7063923388       13.2147396301       32.6606503779
  H         6.2492651499       13.2679777380       18.5110584070
  H         7.1679000362       14.4422640793       19.5046924498
  C         7.9959689141       12.6228756510       19.3909036211
  H         3.0551476544        6.1546388353       16.0187967149
  C         3.6279231978        7.7106571282       14.7878313907
  H         3.6051514998        8.7609087720       28.5939873183
  H         2.9398043773        8.3514992541       30.1421888953
  C         4.3497083213        9.8281124062       30.3672596450
  H        -3.6303846266        8.7704965005       26.3723727667
  H        -4.3661808526        8.5963822050       27.9437820269
  C        -4.9709495789       10.2215079460       26.6903910911
  N        -1.2812664845       16.2528934493       30.4659708227
  C        -1.7370142671       16.0345791968       32.6626762543
  C        -2.0439847856       13.9008745770       33.8457951799
  H        -1.8280166218       12.1773930259       32.6637351343
  H         8.2419344034       12.7597579198       18.3114886671
  H         8.7920941216       12.9692569437       20.0216023790
  H         7.9447982026       11.5677866095       19.5891908391
  S         4.1556146579        9.2672424956       14.4546123342
  C         3.7384905045        6.7252375148       13.7382109233
  H         4.7374883478       10.7321042394       29.9495153737
  H         3.8539460872       10.0856950953       31.2940470909
  C         5.6340700201        8.9870326340       30.6072044092
  H        -4.4269789375       10.9372559088       26.0307430319
  H        -5.3317947108       10.7664090134       27.5193829720
  C        -6.1471489427        9.5591493680       25.9499364497
  S        -1.3373986172       17.7940194271       31.0043777339
  N        -1.6666086355       17.4523219642       32.4912175465
  C        -2.1353145277       15.3879916304       33.8617049134
  H        -2.3951301555       13.3332842709       34.6450879206
  C         4.1790139748        8.7031604632       12.7794157860
  N         4.2284947344        7.3448537361       12.6651953435
  O         3.5381381757        5.5245187635       13.8570058198
  H         6.5058684470        9.6094294671       30.9680682451
  H         6.0570623667        8.6040426709       29.6798481236
  C         5.4889870097        7.8312256261       31.6841099412
  H        -5.6989613908        9.0555737181       25.1277435819
  H        -6.6863385052        8.8803628717       26.6036786987
  C        -7.2215183846       10.6240854881       25.5595939532
  C        -2.4521770759       16.1997981301       35.0215163003
  S         4.8912313045        9.6172025714       11.4717661107
  C         4.3827803408        6.5626615513       11.3757651607
  H         6.3253332239        7.8405224322       32.3744585917
  H         4.5571919055        7.8924230885       32.1562140797
  C         5.4712157928        6.3769470858       31.1015060409
  H        -6.8053072241       11.3629064207       24.8245142286
  H        -7.5693033663       11.2512106361       26.3317352154
  C        -8.3464407168        9.8751469042       24.9244722934
  H        -2.2742264911       17.2892696527       34.9506525304
  C        -2.9724987574       15.8565346144       36.2352316905
  H         5.1235929670        7.0907278559       10.8322509779
  H         4.8804136979        5.6694798204       11.6014266457
  C         3.0490031403        6.3575872638       10.6568338361
  H         4.9421598833        6.4275859691       30.1216277267
  H         4.9172707770        5.6381202561       31.7315270709
  C         6.9306328431        5.8793999915       30.9392904746
  H        -8.6953898222       10.3383166526       23.9797621131
  H        -7.9367669393        8.8925873891       24.7054006841
  C        -9.6344737754        9.7603180066       25.8077720076
  S        -3.5649602906       14.3632180884       36.8440258353
  C        -3.0801331765       16.9837555610       37.1826494573
  H         2.7429791084        5.3127935611       10.7538605340
  H         2.2518584417        7.0451506540       11.0848787895
  H         3.0751060371        6.4803509176        9.5443310848
  H         7.5446410523        6.5694557349       30.5008703447
  H         7.0321284675        4.9610384646       30.3115180867
  H         7.3475297867        5.5132140269       31.9246707517
  H        -9.9555105422       10.6630365350       26.2193423558
  H        -9.3563654340        9.1130625327       26.5833285769
  H       -10.4923785021        9.3108928403       25.3246333423
  C        -3.9226956204       15.2414978116       38.3699511004
  N        -3.8328554654       16.5712242725       38.2341210565
  O        -2.7796495392       18.1240502304       36.9526960966
  S        -4.8526539491       14.4816909861       39.7071056356
  C        -4.1957562402       17.3833959704       39.3450482106
  H        -4.4471893160       18.4262242572       38.9711740011
  H        -5.1919297193       17.1092537646       39.7046156174
  C        -3.0285231638       17.2891855083       40.3938011992
  H        -3.2257350248       16.5006490608       41.0901936268
  H        -2.0551084054       17.2367102923       39.8746820706
  H        -2.8990829905       18.2099643476       40.9893920935
  H         7.9852524756       10.2967251413        3.3073873957
  C         8.7589494030        9.5547011375        3.5184298036
  H         8.2407207498        8.5882792149        3.3185229739
  C         9.3491810494        9.7303921881        4.9049619473
  C         9.8452327144        9.5186486387        2.4556437749
  C         8.3273792682       10.2184475828        5.9888835597
  H         9.7517933117        8.8262428232        5.2484483940
  H        10.1862904622       10.4287760455        4.8262509914
  H         9.7301784149       10.4124812050        1.8010442626
  H         9.6968839708        8.7924342301        1.6637090111
  H        10.8492067881        9.4503076129        2.7963338381
  C         7.5942245644        9.0530968588        6.6878003418
  H         8.8888447340       10.8291296277        6.7443976516
  H         7.6398499395       10.9312127232        5.5059467526
  C         6.7913206382        9.2261904864        7.9689289629
  H         8.3737092142        8.3094435978        6.9168857272
  H         6.9716973832        8.6123912702        5.9604717749
  C         5.6085085020       10.1839302643        7.8975878124
  H         7.4461793930        9.5157177621        8.8005863410
  H         6.4382049692        8.2284641312        8.2897627167
  C         4.3946427455        9.5066062785        7.2655434988
  H         5.3725903410       10.4615313566        8.9481413796
  H         5.9235532392       11.1354605662        7.4592651301
  C         3.1570097617       10.3690633007        6.9786417839
  H         4.1828653471        8.6957557934        7.9437084476
  H         4.6094098978        8.9741931146        6.2774402364
  C         3.5806370647       11.6893397595        6.2823724146
  C         2.6732182626       11.0350973208        8.2133810451
  C         2.1384824642        9.6765713147        6.0835258178
  C         3.2896060272       12.8166429111        7.0662581615
  C         4.1563088108       12.0977657223        5.0711669338
  C         2.6640596964       12.3989138959        8.2736074332
  C         2.2380244682       10.4336906302        9.3426878330
  H         2.6294808978        9.5123659767        5.0841074748
  H         2.1185830772        8.6923773411        6.5916899644
  C         0.7694287130       10.3386245639        6.0143071468
  S         3.6207967650       14.3326303849        6.3595836616
  C         4.2644734741       13.4710453080        4.9607359441
  H         4.5238630920       11.3415134497        4.3744716457
  C         2.1626856824       13.0304606216        9.3581695430
  H         2.2727484231        9.3931750530        9.2059846880
  C         1.7920977059       11.0125290528       10.4656841293
  H         0.9587295959       11.3787538102        5.9916273193
  H         0.0889625378       10.3420527791        6.9459130806
  C        -0.1650652339        9.8692074572        4.8887726600
  C         4.6498841460       14.2094503303        3.7253248296
  C         1.7343232598       12.3994252080       10.5115810547
  H         2.0658612663       14.1160419344        9.3136876016
  C         1.2987976987       10.6689717091       11.7094863734
  H        -1.1109392737       10.5381719306        4.9608485857
  H        -0.6637941511        8.9268905980        5.0354134173
  C         0.4355156429        9.9190327506        3.5071057098
  C         4.5962370563       15.5973902228        3.4751214175
  C         5.0839650967       13.3786681330        2.5582814118
  C         1.2448764834       13.0751807530       11.7373977821
  C         0.9609159751       11.7608063716       12.4884860220
  S         0.9723775788        9.2033170006       12.4865927649
  H         1.2215748954        9.1723495478        3.4371671100
  H         0.7939123973       10.9825323386        3.4542089746
  C        -0.6332533190        9.6891880061        2.3963874131
  N         4.2295409351       16.6471885114        4.3651347600
  C         4.8978537654       16.0891097519        2.1998216363
  C         5.4342722210       13.8870543085        1.2947470069
  H         5.0840804716       12.3074425090        2.6606201034
  C         0.0172395573       13.8904625949       11.4866297055
  C         2.3733078439       13.8947522095       12.3721546116
  C         0.5700760395       11.4107536138       13.7769901427
  C         0.4820783413       10.0741441380       13.9201444291
  H        -1.2366517352        8.7409333007        2.4698560457
  H        -1.3187583804       10.5496320890        2.5014382607
  C        -0.1769467674        9.8467839386        0.9025204649
  S         4.4357520427       18.0920794329        3.5692499252
  N         4.8814760306       17.4920679882        2.0790611057
  C         5.2516936948       15.3302257607        1.1008741961
  H         5.5860069070       13.1225578620        0.5561833059
  H         0.3891202416       14.7730554401       10.8912425544
  H        -0.4340079012       14.1907956067       12.4405290201
  C        -1.1437928935       13.2662111574       10.6970967606
  H         3.1232268803       14.3046980773       11.6530894063
  H         1.8479085141       14.6251701549       13.0516010029
  C         3.4203572929       13.0355669729       13.1667554781
  H         0.3990645878       12.1679921210       14.4825446832
  C         0.3007032733        9.3905439963       15.2687097141
  H         0.7571917683        9.2426925141        0.6798652994
  H         0.1461143064       10.8408124525        0.7313458439
  C        -1.3306128834        9.5445363283       -0.1477458186
  C         5.5106998911       16.0319219009       -0.1153057751
  H        -0.7913341323       12.8446202305        9.7846607329
  H        -1.5538116748       12.4870430710       11.3240295610
  C        -2.1782538086       14.2488868949       10.3467196830
  H         3.7850371995       12.1414631369       12.6505066096
  H         2.9192472182       12.6916041727       14.0439875271
  C         4.6588670039       13.8602689462       13.5047931209
  C         0.2042098456        8.0160950491       15.4969581584
  C         0.1382697689       10.2665232471       16.4792374366
  H        -1.6701474031        8.5340977479       -0.1379753744
  H        -2.1157494247       10.1779964768        0.0153420003
  C        -0.9457183048        9.9568023306       -1.5811001874
  H         5.3473798711       17.0806311950       -0.0532900976
  C         5.7362754469       15.5621285282       -1.4050617785
  H        -1.5916157872       14.9089434864        9.6849138941
  H        -2.3794873524       14.8654616750       11.2162221245
  C        -3.4396296228       13.6532425040        9.6825162795
  H         4.8171535067       14.4784048654       12.6552157058
  H         4.4789667708       14.4241133834       14.4057726016
  C         5.8625760545       13.0012250967       13.8856549120
  N         0.4249297875        7.0529917638       14.4971246071
  C         0.0383717300        7.5384205131       16.7761183982
  C        -0.0543904008        9.7408636866       17.7810135604
  H         0.2206282207       11.3664715305       16.3277993628
  H         0.1546240232       10.0894981123       -1.6726460799
  H        -1.3628453701       10.9434365829       -1.6604049631
  H        -1.2404986963        9.2721303416       -2.3467485292
  S         6.1058770878       13.9255591726       -1.8397678339
  C         5.7109661058       16.5462040763       -2.5038579211
  H        -4.0183742460       14.3798061035        9.0663463138
  H        -3.1375077344       12.8972565149        8.9367435446
  C        -4.3233405125       13.1987060067       10.8288922650
  H         6.1473926082       12.4002889920       12.9855464561
  H         5.3619023570       12.2704069323       14.5588420475
  C         6.9374248521       13.6722731482       14.7096072762
  S         0.3878757250        5.5933248554       15.2619344603
  N         0.0172559304        6.1621464288       16.7342850767
  C        -0.1528488182        8.2571146848       17.9502489755
  H        -0.1069683755       10.3986174875       18.6693170490
  C         6.2807781774       14.5818715326       -3.4593461330
  N         6.0929119731       15.9165269991       -3.6122980485
  O         5.6149459821       17.7306396473       -2.2913445997
  H        -3.7944352193       12.5313456278       11.4951351033
  H        -4.6778005763       13.9990279578       11.5142361332
  C        -5.4869049862       12.4112770113       10.3620972649
  H         6.5664810227       13.8890441222       15.7289840702
  H         7.7390754339       12.9365435172       14.7063964193
  C         7.5441816483       14.8910745819       14.0475289111
  C        -0.3326163285        7.5540906606       19.1459570860
  S         6.4066953173       13.5599833026       -4.8515702149
  C         6.2438717411       16.5675621117       -4.9178436850
  H        -5.2053595864       11.4136336841        9.9301080922
  H        -6.1216069524       12.2189043234       11.2239805064
  C        -6.3506185347       13.1724117421        9.3772465672
  H         6.9980769709       15.0303165231       13.1091959596
  H         8.5555421323       14.7785298152       13.8410999714
  C         7.3501339056       16.1894181907       14.8294411975
  H         0.1350412417        6.5665474205       19.1776447773
  C        -0.9891789797        7.8803686374       20.2765989956
  H         7.2094458794       16.4319463247       -5.3131117916
  H         6.2764216845       17.6765179717       -4.6739482221
  C         5.1210854968       16.2094179342       -5.8104024465
  H        -6.3928960599       12.6067434817        8.4101990169
  H        -6.0270053968       14.1483845315        9.2208963700
  C        -7.7979918864       13.2569288956        9.8635395215
  H         6.2719872859       16.5751578116       14.6534757688
  H         7.5786414689       16.1157943437       15.8669116405
  C         8.2323253928       17.3164436605       14.2760559889
  S        -1.8759816617        9.3376627435       20.6094596919
  C        -1.0698038317        6.7986833637       21.3098837349
  H         5.3849405516       15.3374209117       -6.3657242353
  H         4.9544418868       17.0212256135       -6.5433153804
  H         4.1572931349       16.2392313854       -5.3152720703
  H        -8.4128719180       13.7016099035        9.0771068278
  H        -8.1605732759       12.2877145694       10.0182437560
  H        -7.9375917062       13.9219340574       10.7259409161
  H         8.0683638490       17.4957191500       13.1812015212
  H         8.0226176097       18.2431512327       14.8008004648
  H         9.2499961508       16.9537792353       14.4617460531
  C        -2.2655633932        8.5351416364       22.1156272526
  N        -1.9582028760        7.2480267793       22.2395721032
  O        -0.6060344014        5.6789939746       21.2428581550
  S        -3.2771249770        9.2091993888       23.3327381171
  C        -2.2509775686        6.4078294581       23.4106681133
  H        -2.3314485693        5.3884910278       22.9823451493
  H        -3.1940297350        6.5099273112       23.8018125730
  C        -1.0834327945        6.4727608839       24.3876396742
  H        -1.1153884414        7.5118608310       24.6558662261
  H        -0.1077145948        6.3866926963       23.9573927318
  H        -1.1268868883        5.8347271723       25.2353344539
