352
i =
  H        -3.3386351004       14.7226968985       16.2113915388
  C        -3.1651554133       13.6621814380       16.2415736793
  H        -4.1230413537       13.0853952867       16.3886381038
  C        -2.1557032159       13.2954624455       17.3469973815
  C        -2.6619838138       13.4613591076       14.8700242471
  C        -2.7706733487       13.4353654435       18.7636466395
  H        -1.8738217456       12.2523450099       17.1043386008
  H        -1.2598384960       13.9531291779       17.3703706548
  H        -1.5731501668       13.5350211488       14.8254521536
  H        -3.0549219904       12.5071357679       14.4332347702
  H        -3.1338425349       14.2991558595       14.3373310543
  C        -1.7505236138       12.9811292346       19.7775694562
  H        -3.6736823502       12.7864306421       18.7853323349
  H        -3.0634087937       14.4545285379       19.0205567660
  C        -2.3081582786       13.1318389618       21.1724764273
  H        -1.4287003782       11.9631710295       19.5555745731
  H        -0.8658939151       13.6297398540       19.6572503849
  C        -1.4210790062       12.5470420889       22.2697765499
  H        -3.2083501846       12.5278788668       21.1609034107
  H        -2.6060402984       14.0963561906       21.4415089946
  C        -0.1537696773       13.3816974083       22.5221085877
  H        -2.0161595110       12.5052201444       23.1496519854
  H        -1.3148478690       11.5178472721       22.0289017630
  C         0.9998658366       12.6859271922       23.3068818712
  H         0.2874209998       13.7457510471       21.5628604231
  H        -0.4823219969       14.2765987217       22.9675959548
  C         1.4348240880       11.3945847920       22.6146196829
  C         0.6199501828       11.9800989657       24.5654889040
  C         2.1594967787       13.6773320500       23.4344443481
  C         1.2566702271       10.2865725727       23.4840982404
  C         1.8766917057       11.0489531875       21.3457099085
  C         0.7102931001       10.6296290733       24.6921241618
  C         0.1658572341       12.5620711187       25.7296223684
  H         2.2440306268       14.2516584728       22.4724461821
  H         1.9129689910       14.4124533496       24.1756114969
  C         3.5913641135       13.2171654991       23.6249577308
  S         1.5005657406        8.8275197323       22.6542203194
  C         1.9742577953        9.7016750340       21.2006653731
  H         2.0640021864       11.7831194717       20.5619769208
  C         0.4012329284        9.9092116956       25.7849902762
  H         0.0396842003       13.6692517489       25.6851593412
  C        -0.1214842420       11.9186964420       26.8927361175
  H         3.7053010599       12.4857986580       22.9169932314
  H         3.6205548863       12.6649063753       24.6131325077
  C         4.5485456863       14.3734695627       23.5283489853
  C         2.3676226574        9.0141992585       19.9322260747
  C        -0.0158919242       10.5469940902       26.9141882889
  H         0.3065350060        8.8134838831       25.6752355904
  C        -0.6637828172       12.2830915161       28.0560867063
  H         5.2723122805       14.3317452826       24.3458236972
  H         4.0261186978       15.3119718764       23.7139331225
  C         5.2994101023       14.5779472159       22.1663748333
  C         2.3912143171        7.5958204659       19.7393370430
  C         2.8282829715        9.8154111731       18.7820199673
  C        -0.4310406013        9.8533773112       28.1742262889
  C        -0.8085716465       11.2010704566       28.8917691014
  S        -0.9231177340       13.7642297471       28.8536027799
  H         5.5239996192       15.6446635220       22.3191959021
  H         4.5023268291       14.6024066487       21.4379816643
  C         6.6099341499       13.7686521918       21.9149909356
  N         1.9330943592        6.6372592382       20.6840734740
  C         2.6649935406        7.0443071384       18.5060315801
  C         3.0809550905        9.2623198113       17.5439076115
  H         2.8797328100       10.9412004286       18.9188629727
  C         0.6453933503        9.1433411075       28.9636735553
  C        -1.7460218920        9.1087487304       27.9110223537
  C        -1.1997404826       11.5089507154       30.2247546781
  C        -1.2559854519       12.8483111037       30.3609806665
  H         7.3343221857       14.4455967373       21.4613209754
  H         7.0610229759       13.5206813224       22.9063708626
  C         6.4237779453       12.5116685336       21.0572417138
  S         2.2472920413        5.1641241503       20.0424200199
  N         2.5731955950        5.6301634241       18.5100269336
  C         2.8942377554        7.8096014486       17.3204154537
  H         3.3867758649       10.0791870833       16.8087501133
  H         0.7746174108        8.1917308490       28.4721928579
  H         0.1859183756        8.8100073357       29.8548352913
  C         1.9766728318        9.8245588872       29.1438625837
  H        -1.4989515270        8.2470845740       27.2949217978
  H        -2.0291325732        8.8576449619       28.9191120131
  C        -2.9044335383       10.0116470963       27.3159376126
  H        -1.4342412011       10.7346423183       30.9394414563
  C        -1.7133015804       13.5657722093       31.6391423301
  H         5.5430489482       12.0702054930       21.5801955335
  H         7.3370159265       11.8642562219       21.1753730140
  C         5.9964213285       12.7615978380       19.5855795240
  C         3.1457218353        7.0660309573       16.0905859777
  H         2.6412078722        9.6430526482       28.3663195861
  H         1.9111741293       10.9171493945       29.0286574528
  C         2.6256729526        9.5712388391       30.5191648038
  H        -2.5899931704       10.5222991207       26.3739549302
  H        -3.1353440441       10.7663241072       28.0592584912
  C        -4.2529944387        9.3441249275       27.1191816196
  C        -1.6986412192       14.9530096360       31.7889240350
  C        -2.2124686807       12.7420618416       32.7838881533
  H         5.4252740657       11.9167895255       19.2388111408
  H         5.3227589923       13.6371953091       19.5030284118
  C         7.1516128871       12.7799835784       18.6662026950
  H         3.1957893853        5.9591445580       16.2088925308
  C         3.5138411375        7.4144835244       14.8017454914
  H         2.5001368072        8.5670740535       30.9341280151
  H         2.0633876409       10.1874937592       31.1996291899
  C         4.0086443271        9.9958242719       30.6973436816
  H        -4.0744096660        8.7186661858       26.2507688492
  H        -4.5729411078        8.8154345383       28.0212057903
  C        -5.3568826422       10.3691493419       26.8183829833
  N        -1.2792344623       15.8552131752       30.8261842772
  C        -2.1134696617       15.5496491556       32.9693179059
  C        -2.5697941715       13.3520506469       33.9990628853
  H        -2.2114575954       11.6751490743       32.7989478663
  H         6.8976616172       12.3995091162       17.6790784441
  H         7.4491823827       13.8121609942       18.4588306689
  H         7.8651559215       12.0831838154       19.0504422529
  S         3.8010170670        9.0353450088       14.2250723947
  C         3.6623561966        6.3849054446       13.7323046907
  H         4.2939199787       10.9472976355       30.1774767862
  H         4.2583439856       10.1023631308       31.7129452210
  C         4.8744111894        8.8989019699       30.0317723469
  H        -4.9405909339       11.1537363058       26.1804703151
  H        -5.5305990968       10.7435092638       27.8044174478
  C        -6.6540003694        9.6562728585       26.3665590477
  S        -1.5793494365       17.3423757350       31.3702117895
  N        -1.9993188555       16.9423039898       32.8854292863
  C        -2.4122429386       14.8171441907       34.1691482400
  H        -2.9962395911       12.7691268325       34.8357414379
  C         3.9851415281        8.3165607846       12.6238285231
  N         3.9404782372        6.9841488844       12.5605444624
  O         3.4236797281        5.1980455224       13.9869158337
  H         5.7402923192        9.5208024766       29.4880534802
  H         4.1972404185        8.3701949488       29.3547915904
  C         5.4158300762        7.8768335736       31.0396219371
  H        -6.4655838882        8.5833458163       26.2564098039
  H        -7.3706581169        9.7854900320       27.1400992918
  C        -7.1800542243       10.2991158625       25.0831357162
  C        -2.7173995665       15.5532409053       35.3935043221
  S         4.2011755061        9.1098558694       11.1002614091
  C         3.8388967688        6.2126729667       11.3301223057
  H         6.1141866820        8.3109794269       31.7310620142
  H         4.6307047761        7.4430242120       31.6795591307
  C         5.9526457909        6.6511055013       30.3260024742
  H        -6.2925190546       10.2375894135       24.4182831384
  H        -7.4461954626       11.3945031407       25.3069147737
  C        -8.4672330043        9.6825431436       24.5524390806
  H        -2.3703074438       16.5830308009       35.3486157736
  C        -3.3247230648       15.2059811489       36.6115338035
  H         4.3585546570        6.6249603872       10.4829255026
  H         4.1672775086        5.1568781661       11.4374222700
  C         2.3581185611        6.1671978934       10.9680977494
  H         6.7790293389        7.0995682539       29.8274364283
  H         5.1659738946        6.1810513414       29.7008199556
  C         6.4952531395        5.6131885461       31.2593527555
  H        -8.8882632155       10.2464917163       23.7490099502
  H        -8.2777970785        8.6967129504       24.1299540820
  C        -9.5719974963        9.4961323992       25.5757359116
  S        -3.9763671576       13.6408689880       37.1020491138
  C        -3.4592148043       16.3149142131       37.5560706991
  H         2.0035789605        5.3381399897       10.3491596179
  H         1.7226428597        5.9865036372       11.8039015978
  H         2.1758392629        7.1400582045       10.4824501604
  H         7.1877256596        5.1043244082       30.6150282078
  H         5.7474888563        4.8840488677       31.6413779998
  H         7.0557528197        6.1138895028       32.0787348089
  H       -10.4087631163        8.9569666075       25.0567098803
  H       -10.0531487729       10.4235560219       25.9201599103
  H        -9.4215726434        8.8331586234       26.4653612196
  C        -4.5318260224       14.5636080635       38.5418170245
  N        -4.2378924490       15.8952592230       38.5076347737
  O        -2.9314533524       17.4509019681       37.5005388935
  S        -5.7438122141       14.0186450431       39.6962261417
  C        -4.3460660807       16.6881801709       39.7102153158
  H        -4.3833947135       17.6978266615       39.4392901723
  H        -5.3162075378       16.5389779278       40.1225616188
  C        -3.1449175176       16.3611832950       40.5795033525
  H        -2.6331666625       15.4101349550       40.4069777344
  H        -2.4367672148       17.1389215006       40.4226993383
  H        -3.3308147842       16.3580818032       41.6330322748
  H         7.6597884538       11.2579520996        3.6409029849
  C         8.1175950194       10.2464288142        3.6209939274
  H         7.4082667022        9.3998685814        3.6047623648
  C         8.9611320164       10.0909834818        4.8260394678
  C         8.8956308719       10.3114057167        2.2811113895
  C         8.1135961682       10.2929232206        6.0806604437
  H         9.4779308021        9.1534561512        4.8363570694
  H         9.7732297569       10.8338441019        4.7038463364
  H         9.6596155637        9.4957645161        2.1117367668
  H         9.4939674981       11.2004296733        2.2341652934
  H         8.0634504439       10.4974963015        1.5219091326
  C         7.1608542325        9.1728705847        6.4134028709
  H         8.8092974563       10.5756044882        6.9438984669
  H         7.5444610842       11.2230197647        5.9979123809
  C         6.3985244589        9.4706174367        7.7043229408
  H         7.5967761489        8.1432189610        6.4619196078
  H         6.3786571389        9.1836288394        5.6324797458
  C         5.1770796261       10.2514945683        7.4484459270
  H         7.1112490158        9.8364680268        8.4258793696
  H         6.0369126777        8.5235055215        8.1277175154
  C         4.0068461548        9.4476820745        6.8942772040
  H         4.8524653656       10.7948753433        8.2931950717
  H         5.4362233667       11.0016398695        6.6784338750
  C         2.7386801381       10.3114481145        6.6241870548
  H         3.7985570667        8.5529691841        7.4885137872
  H         4.2697346345        8.9914235225        5.9338961597
  C         3.0840636877       11.6448261552        5.9604215060
  C         2.2201185977       10.8860585706        7.8547869800
  C         1.5744625493        9.6249488416        5.8964703842
  C         2.7309388424       12.6968786102        6.7963765478
  C         3.5308239322       12.0163313468        4.6916478192
  C         2.2355271595       12.2418989025        8.0019185571
  C         1.7059824816       10.2558402018        8.9764610878
  H         2.0377483247        8.8992416883        5.2106035803
  H         1.0332688368        9.0428342921        6.6651183481
  C         0.6142663415       10.4277326839        5.1229166641
  S         3.1615765268       14.2357717434        6.0939823825
  C         3.5783395585       13.4058957457        4.6293265684
  H         3.7537698150       11.2248554700        3.9932969313
  C         1.8434392337       12.8410185445        9.1079403993
  H         1.6341758100        9.1606928363        9.0355066472
  C         1.4326486471       10.9204185553       10.1475193188
  H         1.0222453484       11.0998759635        4.3526043997
  H         0.0275116197       11.0437172730        5.7981384090
  C        -0.1167022355        9.5287106104        4.2128486728
  C         3.9180858211       14.2750980164        3.3966115782
  C         1.4652870202       12.2354214768       10.2895936612
  H         2.0062262449       13.9026916283        9.0876225310
  C         0.9806389591       10.5311496687       11.4019033690
  H        -0.6494472560        8.9395921318        4.9538420704
  H         0.5766937407        8.9237152543        3.6564903228
  C        -1.1143653387       10.3711895932        3.3753621844
  C         3.9003603614       15.6939403659        3.2836644433
  C         4.4443847609       13.4743352035        2.2321713520
  C         1.1298864789       12.9866393708       11.5270375969
  C         0.7826686850       11.6130971131       12.2198149264
  S         0.6234465591        9.0063075683       12.1312701261
  H        -0.7779420663       11.2778607468        2.8607076536
  H        -1.8061169507       10.9322743628        4.0958114650
  C        -2.1364447332        9.5521946734        2.5525262037
  N         3.4167960750       16.6027490115        4.2803381878
  C         4.4454326477       16.3597319844        2.1872458423
  C         4.9301712731       14.1664910618        1.1162179770
  H         4.5044514825       12.4056642209        2.3136710000
  C        -0.0658847194       13.8946763422       11.2371637806
  C         2.2979704699       13.6962016873       12.1635698632
  C         0.3669962321       11.2263796262       13.5278361011
  C         0.2666311199        9.8280052069       13.6269337315
  H        -2.6458838738        8.7670167818        3.2177392082
  H        -2.9778870159       10.2271870217        2.4281372021
  C        -1.7176201671        9.0068951889        1.2350021071
  S         3.6109643798       18.0600891683        3.6657582248
  N         4.2121643686       17.7623108440        2.2095215869
  C         4.8839163036       15.6690616709        1.0124808052
  H         5.2845573297       13.5530829744        0.3370890107
  H         0.1584761199       14.6889388790       10.5071657015
  H        -0.2153791936       14.4352412881       12.0969823406
  C        -1.3128231654       13.1266902370       10.6373331123
  H         2.6278550572       14.3764884974       11.3416517018
  H         1.9615973065       14.3298767134       12.9728611817
  C         3.4101805568       12.7422826982       12.5438332883
  H         0.2748897714       11.9315762936       14.3249927392
  C        -0.0215386549        9.1046513321       14.9313203352
  H        -2.7132763326        8.8325110544        0.7613340850
  H        -1.2252551478        8.1084416779        1.4563510563
  C        -0.8744435935        9.9682002567        0.3986144436
  C         5.0641560077       16.4254270329       -0.2248889891
  H        -1.1978334969       12.8680182891        9.6523252604
  H        -1.4272309400       12.2009090360       11.1364652685
  C        -2.5912895787       13.8923680822       10.6673475350
  H         3.6965582105       12.2894851116       11.5957154582
  H         3.1675023245       11.8932485024       13.2126221764
  C         4.6580165317       13.4561055612       13.1644022349
  C        -0.0308130400        7.7164433629       15.1283542631
  C        -0.2806881992        9.9455430259       16.1638403993
  H        -1.0504928640       10.9928998154        0.7026114472
  H         0.2126305512        9.8607131807        0.6763770772
  C        -1.1061144484        9.8789287030       -1.0638469982
  H         4.8514212773       17.4639458094       -0.1093545496
  C         5.2627618121       16.0180833495       -1.5303418897
  H        -2.6367190146       14.6748231264        9.9273376588
  H        -2.6819616877       14.4857605391       11.5431569205
  C        -3.8655650372       13.0146696636       10.4223539598
  H         5.4269257038       13.5742763889       12.3108042365
  H         4.2321741558       14.4707162766       13.5219248038
  C         5.2816383129       12.7358567243       14.2566706331
  N         0.3087382587        6.8264470894       14.1419090451
  C        -0.3313906113        7.1990343108       16.3299574786
  C        -0.6214191056        9.3690770778       17.3927895896
  H        -0.1512049428       11.0047717604       16.1507166070
  H        -0.8929691789       10.7734828599       -1.5598050759
  H        -2.1432461596        9.7396962262       -1.2820192225
  H        -0.5970285219        9.1150266427       -1.6448267113
  S         5.6205318305       14.4631092500       -2.0306890458
  C         5.2321721387       17.0272726779       -2.5858768375
  H        -3.6625661327       12.2932458877        9.6079588351
  H        -4.1301494385       12.4993861897       11.3803748816
  C        -5.0495513593       13.9647758743       10.0524181624
  H         5.4180399633       11.7377420816       13.9774027722
  H         4.6295014407       12.7525050222       15.1397586811
  C         6.5910458449       13.2938556491       14.7464984985
  S         0.1570126810        5.3650756482       14.7922719599
  N        -0.3006974333        5.8066196821       16.3020638551
  C        -0.6732510588        7.8867550430       17.5492626880
  H        -0.8563827932        9.8975410484       18.2642618255
  C         5.6403101607       15.1463620004       -3.6756593000
  N         5.5470375266       16.4595641022       -3.7672884421
  O         5.0862686324       18.2124098065       -2.3894926682
  H        -5.4543766109       14.6293523928       10.8505532346
  H        -4.7751077899       14.7721063400        9.3209685167
  C        -6.1627367622       13.1875970249        9.2766267835
  H         7.0566332097       12.5181166277       15.3873612554
  H         7.2435571600       13.3735235859       13.8980421560
  C         6.5030830615       14.6531334799       15.4860855349
  C        -0.8233277738        7.2443394130       18.7549612521
  S         6.0008473115       14.3078471733       -5.1433818461
  C         5.3899183989       17.1886577198       -5.0104860557
  H        -5.6696357723       13.1144332527        8.2491362877
  H        -6.3595455793       12.2400179524        9.8246903669
  C        -7.4573115469       14.0196549190        9.1010737168
  H         6.5389373871       14.4688143882       16.5739834551
  H         5.5954692117       15.1866212167       15.4129571158
  C         7.6164757744       15.5563388576       14.8666893515
  H        -0.5443382558        6.1892877082       18.7638613735
  C        -1.2726549851        7.6174763888       19.9825458053
  H         6.0498624190       16.7770801201       -5.7474929883
  H         5.7454256603       18.2117811285       -4.7623727456
  C         3.8843864124       17.3407997242       -5.3919876157
  H        -7.6767892807       13.9376334823        8.0307448816
  H        -7.2621951288       15.0633618479        9.2981266709
  C        -8.6129944093       13.5093671671        9.8777554391
  H         7.7757947882       16.3260231561       15.5872388177
  H         8.5225333109       14.9375411395       14.7717854056
  C         7.3065219573       16.0077843509       13.4646493842
  S        -1.9266008421        9.1495169573       20.4766011941
  C        -1.2870451730        6.5339644969       21.0122709754
  H         3.9081061124       18.1549446777       -6.0775461177
  H         3.1727594748       17.4641049937       -4.5801744760
  H         3.5041168025       16.5442779379       -6.0338856462
  H        -9.4122102431       14.1976959638        9.8777275765
  H        -9.0144035179       12.5131007226        9.6679391304
  H        -8.3771653815       13.4659388218       10.8657635024
  H         6.7580563605       15.1995050751       12.9392583415
  H         6.5278188218       16.8504797997       13.4135723934
  H         8.2516580231       16.3513177646       13.0610906704
  C        -2.2282173181        8.3199487884       22.0137008542
  N        -1.9628973801        7.0060632763       22.0677414155
  O        -0.7817601149        5.4293740559       21.0670767816
  S        -3.0788616749        8.9580965590       23.3347548576
  C        -2.1006675755        6.1858232594       23.2673528115
  H        -2.0826578673        5.1487765018       23.0131549352
  H        -2.9974551092        6.4359700510       23.7686940732
  C        -0.8178859102        6.3666554891       24.1217932552
  H         0.1773297074        6.5840873146       23.6593475470
  H        -0.5738922746        5.4443894112       24.6433401174
  H        -0.9834734724        7.2206625020       24.6832458844
