352
i =
  H        -2.8536995598       15.4554574302       16.6780564743
  C        -2.4411673580       14.4275231537       16.8399598617
  H        -3.2140914978       13.9274332151       17.4358689004
  C        -1.0992095368       14.3502874912       17.5547120933
  C        -2.2276856605       13.9435204283       15.4258861873
  C        -1.2003711405       14.4795734726       19.0922968738
  H        -0.5282486789       13.4674731755       17.3790735268
  H        -0.4497455891       15.1034473848       17.1106715743
  H        -1.7027980376       13.0431693002       15.4122537267
  H        -3.0102014877       13.9872928267       14.6659558387
  H        -1.4887165989       14.6711994682       14.9974999064
  C        -1.5566557209       13.1944888337       19.8899006690
  H        -1.9613869810       15.2147537653       19.1593523594
  H        -0.2507088586       14.9353926061       19.4068573864
  C        -2.0945476177       13.4280335978       21.3605724831
  H        -2.3384857804       12.6276880672       19.3431957484
  H        -0.7333829886       12.5396335708       20.0361597138
  C        -1.1808044890       13.0393461254       22.5499950104
  H        -2.9292885201       12.7493580323       21.4682252852
  H        -2.4355513699       14.4237364987       21.5747720301
  C         0.0634213634       13.8798692434       22.6698621537
  H        -1.8000558294       13.1821951946       23.4274519004
  H        -1.0056940817       11.9592441661       22.3610710129
  C         1.3511473773       13.1356104768       23.2409946981
  H         0.2874195470       14.1112504052       21.6338810703
  H        -0.1140969713       14.7264214162       23.2969317745
  C         1.6914833561       11.8672326992       22.5146430126
  C         1.0188565247       12.4288141178       24.5154609559
  C         2.5152995084       14.0877707297       23.3342422906
  C         1.4992485283       10.7581121209       23.3189750998
  C         2.2153661232       11.5847873811       21.2497457471
  C         1.1001895310       11.0956524580       24.5881611956
  C         0.5453909315       13.0114072134       25.6474910842
  H         2.5758989790       14.5882692182       22.3119168407
  H         2.1402626871       14.8746783141       23.9855735911
  C         3.7955102350       13.4203776328       23.7874513335
  S         1.8851339344        9.3728361451       22.4921347446
  C         2.2507654621       10.2570823978       21.0546560047
  H         2.3345575008       12.4144150230       20.5988659099
  C         0.7099081561       10.4090060904       25.6865825506
  H         0.4590894702       14.1149194660       25.6682173606
  C         0.2853215733       12.3697604749       26.8236648653
  H         4.2892766634       12.8862713224       23.0222343000
  H         3.6727771951       12.7451928371       24.6580471752
  C         4.8173708971       14.5467775661       24.2814202404
  C         2.5316563552        9.5616685691       19.7216867144
  C         0.3443676604       11.0198873295       26.9170605678
  H         0.5716635703        9.3542011984       25.6090611643
  C        -0.1131165191       12.7803545317       28.0698402777
  H         5.4416912086       14.0532676961       25.0371423550
  H         4.2710475230       15.3020440422       24.8683132231
  C         5.6788965734       15.1668697497       23.1331445797
  C         2.5468806620        8.1580400560       19.5446574580
  C         3.1580694803       10.3617463342       18.6219254228
  C        -0.1349300467       10.3347540551       28.1965668737
  C        -0.3683360129       11.6704356203       28.8672354982
  S        -0.4854183897       14.2247717524       28.8677052936
  H         6.0995343048       16.0589628305       23.5392730749
  H         5.2151944465       15.5922374138       22.2909131933
  C         6.7488610741       14.2620839714       22.4804073918
  N         2.1991455900        7.1615924882       20.5220645855
  C         2.7340184633        7.5718590693       18.3353134539
  C         3.5716893486        9.7124473273       17.4475347012
  H         3.2357397266       11.4739549658       18.6829406995
  C         0.9027881217        9.4720243836       28.8996154468
  C        -1.4418524391        9.5889875914       27.8849626105
  C        -0.8703966514       12.0541263138       30.1467759146
  C        -0.8871495473       13.4092432860       30.3274106545
  H         7.7369731192       14.7330670684       22.4338482361
  H         6.9804022527       13.4832192885       23.1704776462
  C         6.3356570773       13.6817072282       21.1545040109
  S         1.9095980840        5.7499704144       19.7841229264
  N         2.3356011961        6.1951328019       18.2773724506
  C         3.2277140932        8.2708436881       17.2008703024
  H         3.9767999311       10.3121034480       16.6216295360
  H         1.2691937568        8.7006149090       28.2534833173
  H         0.4590852384        9.0084422351       29.7950435033
  C         2.1521618172       10.2093976987       29.3171923686
  H        -1.3002991131        8.8634633778       27.0929416017
  H        -1.6524820377        8.9684716790       28.6933175654
  C        -2.5867734849       10.5920737950       27.4087863716
  H        -0.9803883663       11.3044591153       30.9052645210
  C        -1.2202440986       14.1506160504       31.5970179437
  H         5.6844215674       14.4430743055       20.6472360210
  H         5.6948432265       12.8613575009       21.3775713196
  C         7.3595620142       13.3510608622       20.0748284477
  C         3.4375931776        7.4605190141       15.9994146405
  H         2.4975401223       10.7423457185       28.4649626028
  H         1.9480697050       10.9243532714       30.0872991977
  C         3.1591042651        9.2723810952       29.9240869656
  H        -2.4387423477       11.0512168044       26.3920169102
  H        -2.8438153420       11.3177947628       28.1932561731
  C        -3.8632394595        9.8367479805       27.3078422006
  C        -1.3598535121       15.5613868261       31.7981684130
  C        -1.7314317339       13.4070583589       32.7626054592
  H         8.2600368228       13.9645074095       20.2352098319
  H         7.6550532450       12.3310652139       20.3014828742
  C         6.8087060797       13.4479797166       18.6367811338
  H         3.2649028865        6.4253107450       16.1292280463
  C         3.7374997390        7.8920293130       14.7158079901
  H         3.5787449501        8.6905111167       29.0798077998
  H         2.6419336750        8.5073508821       30.5597998956
  C         4.1437344246       10.0474368816       30.8136123892
  H        -3.7933077899        9.0132155139       26.5770147580
  H        -4.1404528606        9.3997912187       28.2645068937
  C        -4.9488931982       10.7629758276       26.9042091235
  N        -1.0412616981       16.4460518393       30.7373909234
  C        -1.7388217274       16.2180466254       32.9425940999
  C        -2.1406836293       13.9830155875       34.0532641502
  H        -1.6814732387       12.3722646712       32.6272473612
  H         5.9183868490       12.9095720623       18.4919605112
  H         6.5832857875       14.4904246248       18.4908411479
  H         7.5625098434       12.9865400223       17.9713696924
  S         4.2227758261        9.4573504705       14.0465169356
  C         3.6771849882        6.8477458644       13.6728826876
  H         4.3253761195       11.1026126107       30.4331880438
  H         3.6648093662       10.1700610863       31.7690079891
  C         5.5352553633        9.4215799232       30.9612241621
  H        -4.6879673869       11.3327662291       26.0773339508
  H        -5.1361020256       11.5735609851       27.6034465331
  C        -6.2676249998       10.0405292913       26.5307266535
  S        -1.2380404012       17.9657809058       31.3285473679
  N        -1.5975235957       17.6289757127       32.9119733742
  C        -2.0585923605       15.4658067525       34.1553163756
  H        -2.5547249504       13.3522827063       34.7937255220
  C         4.2472412724        8.6462132036       12.4611776541
  N         4.0518150939        7.3105711964       12.4333789217
  O         3.2144330852        5.7175995145       13.9187456125
  H         6.1056714462       10.0611939620       31.6713685737
  H         5.9061560894        9.5493177651       29.9048135781
  C         5.5806341420        7.9950409872       31.4896570301
  H        -6.0260513911        9.2464170243       25.8547991040
  H        -6.5832049984        9.6027446788       27.5485823259
  C        -7.3638452372       10.9520510945       25.9858206801
  C        -2.3023995279       16.2678058769       35.3326183027
  S         4.6488265624        9.5523336608       11.0223839704
  C         3.9400256908        6.5405961968       11.2751542019
  H         5.7744752937        7.9980752861       32.5075862035
  H         4.5844114805        7.5196546417       31.2450032662
  C         6.6296337763        7.1172421533       30.7643166398
  H        -6.8536016788       11.6965710555       25.4026705287
  H        -7.9612352976       11.3751141756       26.8220920467
  C        -8.5096745030       10.2736376030       25.2255875261
  H        -1.8803089449       17.2981043292       35.3675142335
  C        -2.9341371449       15.9624408809       36.5188202153
  H         4.7969581239        6.7409589184       10.6434138041
  H         4.1634239658        5.5195203961       11.5021533413
  C         2.6022317477        6.6133504284       10.5991942913
  H         7.5967152794        7.3620123977       31.2009959804
  H         6.6619710910        7.2293022377       29.6597585266
  C         6.2970202713        5.6541289142       30.9210145847
  H        -8.6755488332       10.8902490081       24.3789562184
  H        -8.1630312287        9.2720303386       24.9450152393
  C        -9.8239851712       10.2743192712       26.0439052359
  S        -3.6994728327       14.4901983063       37.0135213357
  C        -2.7950465613       17.0341488980       37.5497877886
  H         2.7051425489        6.2874076038        9.5650152140
  H         1.9703945512        5.9661621158       11.1474175021
  H         2.2431022586        7.6588078363       10.6854874866
  H         5.3005114170        5.4067462462       30.4433454235
  H         6.1658256956        5.3290339452       31.9632934507
  H         7.0041862944        5.0952121093       30.3646183754
  H       -10.1359904157       11.2464974568       26.4133519453
  H        -9.7418613871        9.5463864993       26.8459946382
  H       -10.7032212480        9.8539983731       25.4964499700
  C        -4.0904149610       15.4265775294       38.4682118376
  N        -3.5105572059       16.6449563892       38.6198930192
  O        -2.2113505061       18.0952134494       37.4669478245
  S        -4.9922909013       14.7854610195       39.7258664761
  C        -3.5253148048       17.4184930498       39.8215931888
  H        -3.2408884604       18.3768194746       39.5027161318
  H        -4.5855461535       17.3916732590       40.0939389245
  C        -2.5025585993       16.9234584736       40.8031540921
  H        -2.5297793673       17.4971335809       41.7406765962
  H        -2.5048177426       15.8504189550       41.0183770103
  H        -1.5368036103       17.1758369625       40.2923423143
  H         6.7254009576       10.5964361626        3.9148709627
  C         7.5593448261        9.9858157031        3.6938250573
  H         7.2844506185        8.9927036839        3.8809533216
  C         8.6761664633       10.2850815830        4.6309646740
  C         7.9144396393       10.0329617818        2.1983013944
  C         8.2186206601       10.4984231770        6.0294252486
  H         9.4380547617        9.5180069160        4.6505468923
  H         9.1697202135       11.2096054682        4.3921329809
  H         7.0177716365       10.2671256539        1.5853725146
  H         8.2332571492        9.0705714633        1.7976112115
  H         8.6250633948       10.8226127386        1.9926704336
  C         7.5485095274        9.2911581770        6.5603076646
  H         9.0420369524       10.7132282992        6.6470170945
  H         7.6918536260       11.3979536080        6.0438613689
  C         6.6668923333        9.4479048915        7.8684739507
  H         8.2881780882        8.4907331535        6.7604298740
  H         6.8108878835        8.9585464786        5.8389216270
  C         5.3414671816       10.2685189477        7.7421315631
  H         7.2537727596        9.7984715500        8.7227092256
  H         6.4191321191        8.3686324405        8.1326208363
  C         4.0961104882        9.4799430251        7.1527493949
  H         5.2333338472       10.6773776519        8.7355633957
  H         5.5837963412       11.1246996817        7.1080413913
  C         2.8329437800       10.3947936049        7.0635367156
  H         3.8222093608        8.6366455263        7.8152717844
  H         4.3784478021        9.0183706521        6.2154942503
  C         3.2605671376       11.7211578103        6.3275342368
  C         2.4590240530       11.2264481425        8.3078713821
  C         1.6220034144        9.6389402382        6.5088312872
  C         3.0105027459       12.8958496504        7.1010876084
  C         3.6967154947       12.0764975766        5.0405066945
  C         2.4730870770       12.5849793054        8.3193444026
  C         1.9168931742       10.7109302572        9.5085390445
  H         1.9872463767        9.0156937133        5.6480663531
  H         1.2701317687        8.8779240532        7.2791050550
  C         0.5058891096       10.5662389720        6.1835495232
  S         3.4353555505       14.3414531187        6.3535529911
  C         3.8983353683       13.4400114626        4.9051548903
  H         3.7639980074       11.2178053148        4.3320029221
  C         2.0489743859       13.2947448449        9.4417731844
  H         1.9054605405        9.6225928568        9.6621526695
  C         1.5770973401       11.4421918252       10.6255981760
  H         0.7519647316       11.5401542803        5.7993411820
  H        -0.0003827121       10.8155884847        7.1349217512
  C        -0.6557047945       10.0475550862        5.2944362603
  C         4.3633730368       14.1296917848        3.6874678038
  C         1.6046917546       12.7862089073       10.6644626251
  H         2.1664678775       14.3946350424        9.3373450802
  C         1.2177641810       11.0517332642       11.8908210152
  H        -1.2179030678       10.9359609941        5.1793473781
  H        -1.2517286032        9.3097260232        5.7829273136
  C        -0.2897391104        9.7540607589        3.8839568132
  C         4.2458310077       15.5125276319        3.5013857570
  C         4.8708664770       13.3550205326        2.5535193522
  C         1.2740953310       13.5267235072       11.9071692522
  C         1.1416704463       12.1513047620       12.7008113364
  S         1.1493495405        9.5567222740       12.6651264368
  H         0.4660506035        8.9390169016        3.8116501805
  H         0.2447395290       10.6293199857        3.4611628087
  C        -1.5393727656        9.5906070502        2.9266332036
  N         3.7864258982       16.5053447689        4.4335516796
  C         4.5074839458       16.1328882525        2.2920180436
  C         5.1650388104       13.9185605085        1.3396555832
  H         5.0788316724       12.2777504306        2.6660412007
  C         0.0453418168       14.3654992899       11.6627838545
  C         2.3949235047       14.3095282148       12.5850520199
  C         0.7929519169       11.7646354914       13.9774964168
  C         0.7412338472       10.4152693039       14.1127347268
  H        -2.1585361100        8.7820171067        3.2612905423
  H        -2.0309453939       10.5241532139        2.9761347335
  C        -0.9038273402        9.2066535935        1.5697915250
  S         3.4905666615       17.9145392458        3.6899044495
  N         4.1343440430       17.4849774087        2.2666918167
  C         4.9341455896       15.3892460546        1.1487087883
  H         5.3467449810       13.2536096372        0.5224383674
  H         0.1892884628       15.0125491443       10.7770575823
  H         0.0288839248       15.0578335180       12.5108186523
  C        -1.2625707871       13.5242085554       11.3737763882
  H         2.7102216044       15.1403194053       11.9252575097
  H         1.9496094143       14.6874019857       13.5322633432
  C         3.6698184425       13.5625587780       12.8789840561
  H         0.5624138515       12.5253109986       14.6874636127
  C         0.3617878835        9.6559778257       15.3844898486
  H        -1.3232583863        8.2862287439        1.0986459949
  H         0.1911156377        8.9752431688        1.6352938167
  C        -1.0806613825       10.4613291806        0.7348464600
  C         5.0690326857       16.1363403152       -0.1378070763
  H        -1.1987518217       12.8154754177       10.5469408165
  H        -1.5571652406       12.9668354107       12.2492328635
  C        -2.4707424199       14.4018373367       10.9474950230
  H         4.0199048882       13.2664591910       11.9530939113
  H         3.4566258489       12.6472643985       13.3834236658
  C         4.8284552078       14.3283000773       13.5326227189
  C         0.1496418441        8.2130188815       15.5663652903
  C         0.0773877956       10.4534792707       16.6584609510
  H        -2.1681434045       10.6511396870        0.6667768521
  H        -0.5755843250       11.2399828034        1.2452997311
  C        -0.5376184087       10.3758086799       -0.6960125307
  H         4.6355941237       17.1213756751       -0.0716691084
  C         5.3887055498       15.7844365430       -1.4173037931
  H        -2.4350476277       14.5160861097        9.8566143913
  H        -2.4550918891       15.2955085568       11.5527786857
  C        -3.6843085880       13.6367681130       11.4499247150
  H         5.3104625328       15.0059260596       12.8076419231
  H         4.4858644353       15.1781087930       14.2039007308
  C         5.7744458899       13.2787329118       14.2112888565
  N         0.3963993702        7.2692188070       14.5523273772
  C        -0.2068181962        7.5969347644       16.7262681782
  C        -0.1789359943        9.7890987829       17.8162341242
  H         0.1889465256       11.5279580651       16.6714352923
  H        -0.5309018071       11.3824065792       -1.1078768982
  H        -1.3127743330        9.7594224879       -1.2803938568
  H         0.3840423063        9.8153526456       -0.7897532734
  S         5.7255952178       14.1792404907       -1.9117119068
  C         5.3763966678       16.8070125038       -2.4873597590
  H        -3.4999524083       12.6461324476       10.9109274747
  H        -3.5930697238       13.5751792656       12.5259987494
  C        -5.0847138714       14.2184768202       11.0188680446
  H         5.6105747588       12.4181232677       13.5777150140
  H         5.4875108687       13.0749298996       15.1875376640
  C         7.1867279915       13.7579673810       14.1482374023
  S         0.1823339505        5.7712070660       15.1040885455
  N        -0.3546662321        6.2301910465       16.5751250627
  C        -0.4732694538        8.2938793012       17.9044762039
  H        -0.0701726683       10.3072599385       18.7563236445
  C         5.9431197282       14.8493942441       -3.5496762304
  N         5.8813050122       16.2202904103       -3.5759315245
  O         5.2752375988       18.0159344200       -2.2359245390
  H        -5.8394139853       13.6398893562       11.5179895730
  H        -5.0633554621       15.2615912288       11.3383433844
  C        -5.3945475663       14.0548633707        9.5318639975
  H         7.8970966147       12.9620182403       14.1554239718
  H         7.3564885418       14.0998493626       13.1632520332
  C         7.5039765389       14.8648498341       15.1982719742
  C        -0.7952280203        7.5461654498       19.0766765327
  S         6.3013515752       13.9015621824       -4.9450589829
  C         5.9947533299       17.0097021883       -4.7959014230
  H        -4.8400240237       14.7935510711        8.9501248190
  H        -5.0179283503       13.0388101392        9.1959061209
  C        -6.9163636942       14.2237294959        9.1290049829
  H         7.7102652990       14.5258299667       16.1971441256
  H         6.5513167321       15.4248795286       15.2644944914
  C         8.5080628882       15.8736575776       14.7300670342
  H        -0.8445840938        6.4683475719       18.9521479384
  C        -1.0843130731        7.9749276455       20.3293301614
  H         6.9573098967       16.8642093921       -5.2458360056
  H         6.0428646049       18.0830794489       -4.5361388851
  C         4.7718035175       16.7384415011       -5.7185503221
  H        -6.9792929516       13.8096231947        8.1364041981
  H        -7.2055149243       15.1935451957        9.2004508917
  C        -7.8160942910       13.3995897459       10.0391246220
  H         9.0123046382       16.1607756989       15.5879180007
  H         9.1972399150       15.3688055124       14.0820210012
  C         7.9180104321       17.1622241390       14.1701058153
  S        -1.5311621988        9.5595163446       20.8133270321
  C        -1.2079161592        6.9209332464       21.3707976014
  H         4.2887929183       17.5356979981       -6.1704612593
  H         4.0319384663       16.2489768851       -5.0583511729
  H         5.0922954357       15.9928982987       -6.4473108997
  H        -8.1315566712       13.8242539253       10.9846613327
  H        -8.7196046608       13.2180092063        9.4993712772
  H        -7.3937993534       12.4031153742       10.1373053354
  H         8.7376034594       17.7201276616       13.8033879481
  H         7.3039047169       16.9389319645       13.3736976242
  H         7.3938375000       17.6980307564       14.9797451457
  C        -1.9852471325        8.8686947538       22.3823224730
  N        -1.9004546332        7.4869901589       22.4155700034
  O        -0.7484612023        5.7908139181       21.3001697043
  S        -2.7342400903        9.7549510863       23.6698999924
  C        -2.1943187912        6.6460414820       23.5779861961
  H        -2.2947661502        5.5683963327       23.3892653733
  H        -3.0651336399        6.9742390440       24.0692959114
  C        -0.9232271774        6.7330579536       24.4578771534
  H        -0.8681305259        7.5595182958       25.2143247000
  H        -0.0148292398        6.8108187002       23.8848351568
  H        -0.7686924764        5.9013611756       25.0610446383
