352
i =
  H        -3.3165245258       14.3769684082       16.2384889388
  C        -3.2873802842       13.2447675124       16.2633471023
  H        -4.2876857021       12.8087295792       16.4542910554
  C        -2.2841991036       12.8517299511       17.3802616405
  C        -2.8383682368       12.5660947765       14.9592271804
  C        -2.7938256326       13.1109968879       18.7206903667
  H        -2.1714237431       11.7865449563       17.3502833342
  H        -1.3906413047       13.4694198908       17.1234206308
  H        -3.3978092453       13.0335547508       14.1537006945
  H        -1.7581839918       12.7113337281       14.8478171425
  H        -2.9289483903       11.4681553233       14.8957813048
  C        -1.7532892971       12.7738633830       19.8119734351
  H        -3.6979214131       12.4600880414       18.8455884746
  H        -3.0347686117       14.1815710437       18.8383860849
  C        -2.4320688790       13.2155218648       21.1114999943
  H        -1.4673796890       11.7914936106       19.8106046338
  H        -0.8403340694       13.3638518359       19.6373241110
  C        -1.5191292594       12.6293911384       22.2125706033
  H        -3.4143753662       12.6482107140       21.0817331167
  H        -2.5153249951       14.2735080906       21.0944242498
  C        -0.3391381682       13.5963854125       22.5262625779
  H        -2.0437939900       12.5809536429       23.1703563134
  H        -1.3000838577       11.6460128993       21.8773803267
  C         0.8802057192       12.9404802258       23.2592351692
  H         0.0481552669       14.0655172763       21.6083484646
  H        -0.6639958259       14.3446259168       23.2186990554
  C         1.1929659822       11.6283886424       22.4884899273
  C         0.3664580251       12.2228200685       24.5696077690
  C         2.0647521605       13.8547364984       23.6676720019
  C         0.9196336812       10.5111259457       23.2883569718
  C         1.5331156528       11.2599587940       21.1740268338
  C         0.4241876078       10.8355088288       24.5489607420
  C        -0.1225758625       12.8009046527       25.7220769004
  H         2.1163006095       14.8541748636       23.1614490211
  H         1.9994883845       14.1589555939       24.7294418955
  C         3.3445712985       13.1853266919       23.5750985258
  S         1.2913195698        9.0556284025       22.5195600819
  C         1.6187958767        9.9009476348       21.0211277830
  H         1.6753009362       12.0267887545       20.4144433767
  C         0.0125670831       10.1865712211       25.6854047588
  H        -0.2057587831       13.8178139877       25.7064650809
  C        -0.4043089869       12.0889748840       26.8347875426
  H         3.3891090444       12.7490405881       22.5233763930
  H         3.4174566409       12.3807398502       24.3939186010
  C         4.5498324438       14.0135304667       23.7201587091
  C         2.0807673619        9.2060915395       19.7634962075
  C        -0.4091551594       10.7479887532       26.8715382156
  H         0.0654227853        9.0349433420       25.6245068025
  C        -0.8616732123       12.3738291307       28.1295185353
  H         5.2924688852       13.6797194564       24.3975508730
  H         4.2108610999       14.9255235854       24.1235481277
  C         5.1082816607       14.3548469207       22.2953402374
  C         2.2768816014        7.7845681965       19.6152987510
  C         2.5346859214       10.0013541634       18.6160813403
  C        -0.7748144765        9.9731831970       28.0859461735
  C        -1.0781184835       11.2413141782       28.8813193195
  S        -1.1527023266       13.8280719183       28.9203917663
  H         5.7613266520       15.2467211937       22.3576924749
  H         4.2911676902       14.7480301463       21.6866315167
  C         5.9586534842       13.3125080460       21.5255876859
  N         2.0335574338        6.7960920603       20.6018874868
  C         2.5577829899        7.1818197156       18.3471643801
  C         2.8724262502        9.4185195632       17.4166052264
  H         2.5927349126       11.0937031678       18.7636757305
  C         0.4431116508        9.1149841158       28.5024246184
  C        -2.1419811226        9.1559742368       27.8287654410
  C        -1.5735950630       11.5609964553       30.1088307774
  C        -1.5098003792       12.9061085728       30.3333678004
  H         6.8667346956       13.8045985391       21.2057677366
  H         6.2285649657       12.5142675515       22.2720130941
  C         5.2905694755       12.7578181050       20.2661318139
  S         2.0697806244        5.3219075322       19.9062026044
  N         2.5841944127        5.7850226729       18.3989659170
  C         2.8039536879        7.9470574509       17.1839182256
  H         3.1603606693       10.0932368344       16.6275431330
  H         0.7817038151        8.5058460903       27.6381641548
  H         0.1482487027        8.2888127685       29.1704354625
  C         1.5529149052        9.8653622050       29.0718004791
  H        -1.9576533655        8.3187690250       27.1108525503
  H        -2.5345473548        8.9830265143       28.8134753780
  C        -3.2279698955        9.9862809488       27.1544239318
  H        -1.7611209715       10.7004419150       30.7674961822
  C        -1.8430416220       13.5945301311       31.5976401503
  H         4.1560924715       12.9881518209       20.2266084284
  H         5.3136235975       11.7180475548       20.3371847192
  C         5.9940909865       12.9916314059       19.0114956834
  C         3.1038526417        7.2480086216       15.9764765526
  H         2.0037437058       10.5266799552       28.3363750863
  H         1.1451308119       10.4362752394       29.9196874837
  C         2.5918634481        8.9741733349       29.6991729787
  H        -2.9084569087       10.3072419035       26.1362350435
  H        -3.4246163351       10.8765738008       27.7001476707
  C        -4.5625774298        9.3345136116       27.0789341559
  C        -1.8285617295       15.0133512821       31.8170110481
  C        -2.1782618134       12.7583863656       32.7278390826
  H         5.4051278988       12.4547693490       18.2558246100
  H         5.9169497472       14.0298428737       18.6675393111
  C         7.4669088151       12.5264572344       19.0251110955
  H         2.7733350644        6.1690844075       16.0644447877
  C         3.5161113828        7.6831368702       14.7718773626
  H         3.0215344257        8.3587170285       28.8678897125
  H         2.0799408709        8.2477321526       30.4034855664
  C         3.7022217874        9.7663260752       30.4428199281
  H        -4.7609975693        8.8240952652       26.1260165566
  H        -4.7293877208        8.5371128413       27.8033170957
  C        -5.6781690040       10.4049435517       27.1670264936
  N        -1.5502424995       15.9539515875       30.8391522300
  C        -2.1596808146       15.5998030241       33.0277913500
  C        -2.5497377229       13.3540735234       33.9458603100
  H        -2.0769659382       11.6533070887       32.7331488738
  H         7.6636044968       11.5971351266       19.5414132704
  H         7.7565173267       12.2958260517       17.9789836201
  H         8.1037185486       13.3274932466       19.3403611178
  S         3.9555789730        9.3203663691       14.2814757062
  C         3.4932647935        6.6703333288       13.6723868841
  H         3.8090040913       10.8059318051       30.0093438944
  H         3.4774654103        9.9086943788       31.4445255179
  C         5.1193961786        9.1738750501       30.5171790014
  H        -5.4047746893       11.3111168125       26.5483975354
  H        -5.7442947800       10.7960202252       28.1804864973
  C        -7.0382649322        9.8005543416       26.7047298270
  S        -1.6587041166       17.4498601164       31.5391841967
  N        -2.0442299184       16.9918912998       33.0486980306
  C        -2.4884445959       14.7961440284       34.1974125918
  H        -2.6643211082       12.7529502407       34.8196434965
  C         3.9250020075        8.6362700449       12.6796892306
  N         3.7361671023        7.2996273603       12.5387068173
  O         3.3648996957        5.4134687375       13.7939421965
  H         5.9064386534        9.8713883088       31.0271108338
  H         5.4298575344        8.8264665626       29.5546996634
  C         5.1676468950        7.9505469611       31.4030190954
  H        -6.9564087305        8.6625873405       26.9252215228
  H        -7.8664195242       10.2419088238       27.2786904239
  C        -7.3199940033        9.9734675615       25.1804054824
  C        -2.7992349900       15.4683257127       35.4195925368
  S         4.6070579666        9.5424374599       11.2803365505
  C         3.8149383590        6.6375374605       11.2471317318
  H         6.0162067895        8.1151429654       32.0579521218
  H         4.2164892978        7.7055960993       31.9801566983
  C         5.6150565267        6.6540796659       30.5858811662
  H        -6.5117465211        9.5258464872       24.7068062982
  H        -7.2556555005       11.0268214615       24.8746457303
  C        -8.6644826884        9.3478819974       24.6422686313
  H        -2.3898361951       16.4455373109       35.5297728489
  C        -3.3885158843       14.9736944275       36.5960917779
  H         4.3329718336        7.1434729605       10.4783964416
  H         4.2199466172        5.5985132899       11.2691659446
  C         2.4197116113        6.4544349074       10.7176151786
  H         5.8806689175        6.8976510960       29.6107088200
  H         4.6695599863        6.0952166523       30.4638337027
  C         6.8365719045        5.8237668809       31.1565730372
  H        -8.8350979429       10.0506167248       23.8272943238
  H        -8.5993542917        8.3079191583       24.2554109193
  C        -9.7937271785        9.3403305596       25.6051554492
  S        -4.1332110525       13.4786496196       36.7977508144
  C        -3.3660970221       15.8133155314       37.8188342834
  H         2.3844445823        5.7795430724        9.8129057046
  H         1.7907879061        5.9799258108       11.4840695676
  H         1.9617326209        7.4020629366       10.3233383009
  H         7.7352176586        6.3350286028       31.0042523115
  H         6.8584119563        4.8581060119       30.6494853227
  H         6.7896213893        5.6690539396       32.2590778845
  H       -10.7019681833        9.0157618839       25.0609257798
  H       -10.0287726742       10.2026535355       26.2273769095
  H        -9.5632713733        8.4829458399       26.3254712293
  C        -4.4913513354       13.9893466044       38.4376845753
  N        -4.1416054912       15.2385236913       38.7464816975
  O        -2.7794903402       16.8387449844       37.9387862920
  S        -5.5821276261       13.1343352949       39.4484086755
  C        -4.4726426469       15.8872199939       39.9850822601
  H        -4.2946367784       17.0009297643       39.8826467687
  H        -5.5537215890       15.9507449938       40.1610870964
  C        -3.4626613565       15.3459746451       41.0384358855
  H        -3.5576254612       14.2933198552       41.2355791942
  H        -2.4410217125       15.5977483410       40.6896679862
  H        -3.6206445368       15.8244324866       41.9941424697
  H         7.2002067001       11.0833470715        3.0037695224
  C         8.0114025550       10.3269050405        3.0248544981
  H         7.5238512487        9.3651857738        3.0199570071
  C         8.8450116824       10.4548526489        4.3521140268
  C         8.9671435945       10.4178630403        1.7306244127
  C         7.9297045281       10.6015430585        5.5583552669
  H         9.5118381659        9.6040976865        4.3890343940
  H         9.3812937378       11.4068777163        4.2538966380
  H         9.9312005201       10.9105403873        2.0375493804
  H         8.5062343359       10.9802633520        0.9833918334
  H         9.1161647300        9.4376960327        1.2264953526
  C         7.3991878288        9.3252053767        6.2863960670
  H         8.4337110922       11.1195161649        6.3674424527
  H         7.0520180289       11.0898134511        5.2337610948
  C         6.7807320932        9.4416579188        7.7159650781
  H         8.2947359810        8.7316281601        6.3797461406
  H         6.7003371061        8.8750902096        5.6194942893
  C         5.4430421694       10.2662978235        7.7035860384
  H         7.4205735688        9.9631872257        8.4297293728
  H         6.7952147537        8.4511767109        8.2464699235
  C         4.2798792375        9.3955616915        7.1728299168
  H         5.2666321530       10.4824672142        8.7454145291
  H         5.5753287368       11.2187615786        7.2212068841
  C         2.9965684071       10.1931918517        6.8921681892
  H         4.0509005197        8.6106743164        7.9496830351
  H         4.5887152209        8.9134525403        6.2725475886
  C         3.2867923035       11.5176402561        6.2035560069
  C         2.4041579482       10.9477927876        8.0852005732
  C         1.8723209316        9.3745237558        6.1859241693
  C         2.8895960486       12.6487538122        6.9300421497
  C         3.9439631348       11.8969641479        5.0182518254
  C         2.3374389105       12.3012404658        8.1554124895
  C         1.8233864628       10.3440791267        9.2096089058
  H         2.3280098722        8.6411365658        5.5228504132
  H         1.3231670572        8.7256415051        6.8475109092
  C         0.9769842679       10.3278793645        5.3582024019
  S         3.2067069901       14.1168687453        6.2260714022
  C         3.8889607071       13.2673816671        4.8624866161
  H         4.4040270317       11.1470132720        4.4355255717
  C         1.9103354718       12.9474378602        9.2968287144
  H         1.7607645968        9.2740103378        9.2585527845
  C         1.3682062936       10.9928073766       10.3487309415
  H         1.5899788174       10.7170285058        4.5252155893
  H         0.6117656999       11.1277657738        5.9354027179
  C        -0.2085571202        9.5224443807        4.7038478121
  C         4.3684867335       13.9637534248        3.6506783371
  C         1.4147799100       12.3698803338       10.4600256763
  H         1.7983520330       14.0562618443        9.2424836831
  C         0.9640384640       10.6624450371       11.6637488692
  H        -0.8859649882        9.4318392881        5.5688823034
  H         0.1391913479        8.5741595524        4.3187130484
  C        -0.9387578717       10.3261399026        3.6505820383
  C         4.2742039232       15.3933970855        3.4165792681
  C         4.7152369279       13.1332520762        2.4857503959
  C         1.0524059676       13.0480373042       11.7374395834
  C         0.8316033841       11.7517820420       12.5103617175
  S         0.7195608487        9.1269484895       12.3553516764
  H        -0.2796183004       10.8451631486        3.0176673783
  H        -1.4787351856       11.1028743169        4.1489110496
  C        -1.9365235818        9.6097995713        2.7553648864
  N         3.8257577578       16.4318488425        4.2739479343
  C         4.5612915886       15.8973833497        2.1621713329
  C         5.0225180681       13.6269065556        1.2605714028
  H         4.7218369573       12.0816032477        2.6127699987
  C        -0.2416427215       13.8221038465       11.7885948036
  C         2.3584454252       13.7440027238       12.2826045748
  C         0.4863580086       11.2791891288       13.7719495200
  C         0.4100647476        9.9398063516       13.8055003409
  H        -2.4047424989        8.8185415142        3.4024189257
  H        -2.6810368694       10.3524219193        2.4817075311
  C        -1.3870994596        9.0882762569        1.4842857434
  S         3.7367826358       17.8174963242        3.4124405066
  N         4.4837577209       17.2891758863        2.0785447873
  C         4.9857534285       15.1096475942        1.0420663532
  H         5.2064850057       13.0065541825        0.3718391586
  H        -0.2853340157       14.5814194717       10.9904031916
  H        -0.3533480073       14.3397615905       12.7108346009
  C        -1.4731876683       12.9983787630       11.4288586417
  H         2.7186670616       14.4110558826       11.4731066722
  H         2.1300544574       14.4431399244       13.0662899465
  C         3.3847361375       12.7895682121       12.8301101044
  H         0.4996659325       12.0724289580       14.5017027901
  C         0.0834656159        9.1876543557       15.0774485537
  H        -2.1165944900        8.3485818754        1.0554145368
  H        -0.4356898498        8.5495856907        1.6668605538
  C        -1.1584363815       10.1425748649        0.3583265155
  C         5.1157805746       15.7226632644       -0.3033452295
  H        -1.3351387743       12.3969118063       10.5263813262
  H        -1.6931750581       12.1673750394       12.0709947129
  C        -2.7748272467       13.8819480903       11.2399268827
  H         3.4342633479       11.9056143446       12.3072055749
  H         3.0293353803       12.4353552055       13.7503901153
  C         4.8566480244       13.2912613797       13.1139473187
  C         0.0149474337        7.7885269630       15.1750012515
  C        -0.3564381860        9.9243877378       16.2619569305
  H        -2.1264341112       10.5682965390        0.0564857746
  H        -0.6026653753       10.9663844955        0.7461125840
  C        -0.3380729741        9.6507081775       -0.8345316820
  H         4.9101843998       16.7655893700       -0.3130541441
  C         5.3945139131       15.2568063678       -1.5839103544
  H        -2.5891582814       14.4859138481       10.3522900046
  H        -2.9693010775       14.5439930714       12.0097576655
  C        -3.9348390114       12.9569761581       10.8821206724
  H         5.4218241938       12.4055386427       13.1604016046
  H         5.2174391356       13.9738291653       12.3682896225
  C         4.9716779168       14.1324589406       14.3656829258
  N         0.4313286237        6.7956158436       14.2500853838
  C        -0.3472075193        7.1516028212       16.3681835699
  C        -0.6481888336        9.2809854189       17.4678105538
  H        -0.2786040788       11.0167569859       16.2830033561
  H         0.0232390270       10.4732314234       -1.4370918091
  H        -0.8791336180        8.9665639452       -1.5252924551
  H         0.4259779116        8.9717407018       -0.4024372510
  S         5.8847002763       13.6257692177       -2.0283544567
  C         5.4664414352       16.3032260810       -2.5983762823
  H        -3.4595987088       12.0972536746       10.5248980207
  H        -4.5786235858       12.7395198015       11.6188757468
  C        -4.6698532639       13.6156018334        9.5937473076
  H         4.3931900589       13.6578450241       15.1471180684
  H         4.4574327437       15.1237171369       14.2609501270
  C         6.4927583412       14.3054967608       14.7329897950
  S         0.1002947296        5.3378093424       14.8020171292
  N        -0.3296190230        5.7771574261       16.3354379190
  C        -0.6328436494        7.7869176298       17.5772380080
  H        -0.7909949651        9.8494081459       18.3348621559
  C         6.0724762722       14.4075267014       -3.6669439733
  N         5.9810168645       15.7455790457       -3.7025930059
  O         5.2066590784       17.5090288199       -2.4661033854
  H        -4.9895967559       14.5717125897        9.8792482186
  H        -3.9752392192       13.8401682141        8.8259482183
  C        -5.8049439021       12.6464523979        9.0901149686
  H         6.8809563799       13.4069467472       15.3585903391
  H         7.1869325238       14.3304691507       13.9177088109
  C         6.7877859295       15.4336595662       15.7036609433
  C        -0.9960428375        7.0741194552       18.7747910471
  S         6.6119805619       13.6674720813       -5.1315826781
  C         6.0925497430       16.5835765291       -4.8983003462
  H        -5.6023124037       12.5260559672        8.0406315719
  H        -5.8121862087       11.6673146876        9.7195667671
  C        -7.1974465503       13.3494674739        9.1913004171
  H         7.0181468190       14.8463507486       16.6064789248
  H         5.9201345122       16.0605076601       15.9086841001
  C         7.8154115987       16.4419314478       15.2828174724
  H        -0.7530624645        6.0276727802       18.6359300701
  C        -1.6332941469        7.3960458948       19.9798915460
  H         6.9690389682       16.3387201276       -5.5034497072
  H         6.5260568955       17.5991062789       -4.5409449437
  C         4.7097343894       16.7058280682       -5.5710203126
  H        -7.9075426670       12.9720006763        8.4986469208
  H        -7.0325847060       14.3753720802        8.8991440448
  C        -7.8547465499       13.2868979036       10.5310826870
  H         7.6636206061       17.4313616885       15.7234004726
  H         8.7647065925       16.0821432759       15.7075097179
  C         7.9250850239       16.6455746468       13.7653997600
  S        -2.2693428914        8.9114352588       20.5097702498
  C        -1.7672457696        6.3013420877       20.9685071158
  H         4.0786105547       17.4612760903       -5.1534403886
  H         4.3064121134       15.7263655615       -5.4353701991
  H         4.9489311937       16.9512532723       -6.6526874548
  H        -8.7871770648       13.8746453216       10.6208921023
  H        -8.2964940541       12.3154240989       10.7510504591
  H        -7.1527231294       13.3187547339       11.3553587761
  H         6.9226480208       16.9605945404       13.4603899325
  H         8.4084546058       17.6324869258       13.5671447041
  H         8.4464294978       15.9030337821       13.1999183892
  C        -2.6433243589        8.0827256448       22.0185630738
  N        -2.3376427209        6.7563333415       22.0762831498
  O        -1.1880483976        5.1938501718       20.8459252653
  S        -3.4157170634        8.7970403160       23.4614516746
  C        -2.4732567675        5.9010120829       23.2334877857
  H        -2.5988736235        4.8633063456       22.7851779966
  H        -3.4565161812        5.9596152469       23.7427204375
  C        -1.2041974642        5.9898959937       24.0222973152
  H        -0.2098657360        5.7748691634       23.5588853382
  H        -1.1871221011        5.2099460498       24.7536310285
  H        -1.2847657138        6.9327862854       24.5727528339
