352
i =
  H        -3.8429776391       14.7667305158       16.6720280231
  C        -3.5139923505       13.6355993132       16.6278302418
  H        -4.1761230231       13.0009619949       17.1042440013
  C        -2.1487507329       13.5585492624       17.2550766482
  C        -3.3821653825       13.1765811811       15.2190920766
  C        -2.0755252479       13.8967756312       18.7177587513
  H        -1.7238070350       12.6185437871       16.8825279608
  H        -1.5870581139       14.3004323941       16.7830128139
  H        -2.5593861787       13.6741052634       14.8054143496
  H        -3.1763994336       12.0678347875       15.1851891409
  H        -4.3188425240       13.2845081384       14.6792112334
  C        -1.8995895150       12.8066811413       19.7434119457
  H        -2.9202638941       14.5558307318       18.9035395145
  H        -1.2013777371       14.4912933349       18.8375122818
  C        -2.3056422564       13.3351082352       21.0824516894
  H        -2.5005147437       12.0014622826       19.4938749363
  H        -0.8811700035       12.5630047081       19.7871752046
  C        -1.4409021290       12.7008118005       22.2015205431
  H        -3.3608443348       13.2266496594       21.2303158613
  H        -2.1794601107       14.3753330019       21.0274469489
  C        -0.1069388497       13.4486820332       22.3290733010
  H        -1.9100301741       12.8413851159       23.1600009106
  H        -1.3088453155       11.5973038295       22.2390693827
  C         0.9228466097       12.7124554481       23.2443549105
  H         0.2788642412       13.7780748691       21.3512429061
  H        -0.3542433775       14.3913633382       22.7792819580
  C         1.3669069152       11.4201904612       22.6855121656
  C         0.4291224146       12.0386971958       24.5641515216
  C         2.1098383624       13.6316921178       23.5063717779
  C         1.1424845946       10.2843962864       23.4828262077
  C         1.8228876308       10.9773290593       21.4381097756
  C         0.5814797567       10.7074853079       24.7179886400
  C        -0.0444949997       12.7048417339       25.7152607660
  H         2.3270403304       14.1487483864       22.5135553661
  H         1.8154909780       14.4367771831       24.2061059730
  C         3.3355597613       12.8141688335       23.7996460076
  S         1.5244933380        8.7290896618       22.7400768420
  C         1.9714351550        9.6208036504       21.2763950455
  H         1.9700469448       11.7007224350       20.6563824036
  C         0.1948756706       10.0780958185       25.8726025697
  H        -0.0292268560       13.7669795332       25.7167667697
  C        -0.3713189547       12.1086032948       26.8884330241
  H         3.6544782202       12.2774324385       22.9216124161
  H         3.0946929743       12.1724993629       24.6125009028
  C         4.4827062883       13.6036792491       24.3478509907
  C         2.3771164535        8.8822803236       20.0566374051
  C        -0.3106712208       10.7589723404       26.9921562998
  H         0.2469016482        9.0128495116       25.9435561741
  C        -0.8458442724       12.5218466041       28.0990368543
  H         5.1417013785       12.9385652880       24.9041056587
  H         4.2085276224       14.2140343375       25.1949499700
  C         5.2261446411       14.4957969521       23.3056570412
  C         2.4422286033        7.4744453079       19.7553051409
  C         2.8283211321        9.7367494691       18.9384245290
  C        -0.7969658496       10.1115774002       28.2562810717
  C        -1.0236240618       11.4245999482       28.9538536711
  S        -1.0733643559       14.0396599222       28.8079191134
  H         5.8097819414       15.2541393103       23.7724099571
  H         4.5189750297       15.0463832738       22.6137230784
  C         6.2162845272       13.7925811199       22.3722003092
  N         1.9680163321        6.4457844175       20.6181056934
  C         2.7759059661        6.9956240877       18.5196811381
  C         3.0429661863        9.2649386411       17.6672321227
  H         3.0450533856       10.8561297537       18.9557662799
  C         0.2229903065        9.1813260344       28.9272802880
  C        -2.0777394054        9.3253150521       28.0252833215
  C        -1.3317234113       11.8435776044       30.2516627178
  C        -1.3459428983       13.2229966975       30.3264228428
  H         7.1576834405       14.2654538516       22.6174189231
  H         6.3619120346       12.7927306321       22.6784502077
  C         5.9965901957       13.9268525403       20.8538977179
  S         2.1503034963        5.0566206572       19.8257603064
  N         2.7234289978        5.6206316758       18.4491365273
  C         3.0857862646        7.8081843070       17.4370891370
  H         3.1971411005        9.9852408552       16.9097588337
  H         0.6026958573        8.5169068952       28.1808107931
  H        -0.2105641549        8.6398328905       29.7844363383
  C         1.4420015828        9.8782414565       29.5464520607
  H        -1.8713322587        8.6953107993       27.2193718932
  H        -2.3477854107        8.7056114964       28.8536852872
  C        -3.2857491006       10.1464601781       27.6532534837
  H        -1.3707848709       11.1748394613       31.1068394312
  C        -1.6115225793       14.1202075825       31.5125229050
  H         5.9165056814       14.9655270028       20.6555393087
  H         5.0487020909       13.4652024323       20.5487885733
  C         7.0964438142       13.1750326747       20.0255412190
  C         3.2472232568        7.2382100082       16.1366421236
  H         1.8484204392       10.5181553947       28.8038769900
  H         1.3258312711       10.4888859423       30.4097966847
  C         2.6767801631        9.0267608641       29.8090675952
  H        -3.1472449595       10.6843680569       26.7099347319
  H        -3.4513663508       10.9554789411       28.3833026501
  C        -4.6339195730        9.3948994433       27.6701725869
  C        -1.5544323618       15.4969159263       31.6071767963
  C        -2.0548526421       13.5317736794       32.7813126802
  H         8.1052837276       13.2488893870       20.4028487179
  H         6.7942066831       12.1397880345       20.1183509516
  C         7.1459152496       13.5863304678       18.5246524190
  H         3.1469235866        6.1307468364       16.1588543748
  C         3.5736977102        7.6545067935       14.8453514444
  H         3.0184853933        8.5696925887       28.9063187557
  H         2.4034466819        8.1289064128       30.3928082618
  C         3.6475902285        9.9369414025       30.4974510889
  H        -4.6956800700        8.5699227180       26.9451932715
  H        -4.8334416124        8.8782593855       28.5931077420
  C        -5.7588109195       10.4632279666       27.4876185072
  N        -1.3698716157       16.3533428935       30.5138788383
  C        -1.7577182871       16.2208549773       32.7550500524
  C        -2.2266513392       14.1879112682       33.9900205355
  H        -2.0821515169       12.4900980325       32.7276847240
  H         6.2628750745       13.2502718542       17.9476114739
  H         7.4362655587       14.6848472233       18.3566301542
  H         7.9154600636       12.8589010053       18.1847859561
  S         4.1304000802        9.2905532186       14.5029738186
  C         3.7185934736        6.7134003222       13.6923260979
  H         3.8097319959       10.8762833378       29.9930983071
  H         3.2748153356       10.2693107863       31.5187064948
  C         4.9635478490        9.2627730523       30.7889833145
  H        -5.5731772801       11.2785595259       28.0859799254
  H        -6.7128724747       10.0442676880       27.8241831756
  C        -5.7191582748       10.7846266767       25.9984057840
  S        -1.2528136500       17.8745706587       31.0476023660
  N        -1.6061381268       17.6372270257       32.5900210147
  C        -2.0935568845       15.6725402690       34.0123495635
  H        -2.6255073530       13.5831194202       34.7356983727
  C         4.2506130564        8.7712277768       12.8284885528
  N         4.1049987599        7.4622502505       12.6301115708
  O         3.5569460885        5.5039595875       13.7833331735
  H         5.6372013988        9.9988902130       31.2722307067
  H         5.2651686284        9.0052219392       29.7599832661
  C         4.8649942902        8.1429139715       31.7474207492
  H        -5.0784406608       11.6834059705       25.7523878135
  H        -5.2568611151       10.0301103350       25.4559313996
  C        -7.0796257882       11.1301366725       25.5332531859
  C        -2.4919272677       16.5111073524       35.0726217178
  S         4.8408442674        9.8796061367       11.4905979184
  C         4.2246179648        6.8582498724       11.3041652295
  H         5.3968409927        8.4698844492       32.6651323267
  H         3.8341104437        7.8879682488       31.9607488937
  C         5.3909053277        6.8065592746       31.1998748535
  H        -7.0174191751       11.6337980929       24.5945759162
  H        -7.5555209201       11.7285403102       26.2469288788
  C        -8.0005164890        9.9703650328       25.3252306883
  H        -2.1430493899       17.5452724736       34.9556063664
  C        -3.0122959780       16.2858933158       36.3083214155
  H         4.8242234523        7.4204771018       10.6488735512
  H         4.7222699759        5.8939287320       11.3997897144
  C         2.8265570854        6.5421400821       10.6982086601
  H         4.5435176363        6.2348585806       30.8422859038
  H         5.6551076627        6.2627691637       32.1542230016
  C         6.5844922437        6.7947816624       30.2294133922
  H        -8.2036294530        9.9847991642       24.2643041190
  H        -7.4270414492        9.0682732732       25.5586157883
  C        -9.2837054561        9.9610275656       26.1947452390
  S        -3.6594537799       14.8345711114       36.9242397012
  C        -3.1830652605       17.5125025587       37.1443114583
  H         2.9523509500        5.8965421663        9.8585431306
  H         2.1315650552        6.0413955224       11.3605340274
  H         2.3500845251        7.4244637356       10.2801278137
  H         6.1645103127        6.9891546332       29.1675269900
  H         6.8993882905        5.8032256217       30.2986961008
  H         7.3699283604        7.4387199471       30.4916398359
  H       -10.1232430003       10.6125915684       25.9618172261
  H        -9.0617140268       10.0875514122       27.2361764610
  H        -9.7741374448        8.9726059477       26.1771818615
  C        -3.9911498100       15.7578985610       38.4082747242
  N        -3.6997148509       17.0632753209       38.3562358936
  O        -2.7782717591       18.6694640554       36.9175914055
  S        -4.4397435597       15.0934307693       39.9200857245
  C        -3.7817494989       18.0427852827       39.4547998245
  H        -3.9904070908       19.0366958235       39.0085474326
  H        -4.6698759261       17.8797620095       40.1296382803
  C        -2.5222188950       18.0811658978       40.3078890369
  H        -2.8020776154       18.6681533427       41.1406132848
  H        -2.2373610212       17.1648640988       40.7836053494
  H        -1.6213538124       18.6096041178       39.9845277001
  H         7.2726644837       10.8488558240        3.4342895962
  C         8.1323144374       10.2887388367        3.5512705589
  H         7.7895532349        9.2586313439        3.7618391835
  C         9.0230703191       10.7694035518        4.7181763108
  C         8.9750726737       10.2410671659        2.2328866642
  C         8.4231542333       11.0317030108        6.0591322207
  H         9.8615441242       10.0643720234        4.8813450915
  H         9.5220784052       11.6734044348        4.4010305563
  H         9.6135211585        9.3550024798        2.0992077559
  H         9.4657824818       11.2513872769        1.9962605258
  H         8.1539335057       10.0210190142        1.5335838922
  C         7.7910314512        9.6833481713        6.5302446372
  H         9.1612831846       11.4869940289        6.6845381530
  H         7.6248835000       11.6382712774        6.0596880511
  C         7.1397844736        9.8389237604        7.8904908478
  H         8.6197723810        8.8882411167        6.5804744012
  H         7.0582370317        9.3740043793        5.8121694300
  C         5.6925072869       10.4795897502        7.9491858403
  H         7.8014062011       10.4349493164        8.4982178899
  H         7.0948114447        8.8475984343        8.3743228905
  C         4.5536981038        9.5070168930        7.3929992924
  H         5.4110308192       10.8454513588        8.9672830594
  H         5.7417563850       11.3581787650        7.3036472143
  C         3.2517053421       10.2690372379        7.0917350685
  H         4.4352571996        8.7327122396        8.1575314908
  H         4.7626010783        8.9874800792        6.4127572187
  C         3.4909870778       11.6710545857        6.4146714986
  C         2.8000639836       10.9538500533        8.3831726583
  C         2.1893526868        9.4370827360        6.3696172195
  C         3.1685925177       12.7436638554        7.2542196864
  C         4.2242582064       12.1308486975        5.2671843259
  C         2.7484108733       12.2974133276        8.4918572462
  C         2.3498393308       10.2601933357        9.5205150619
  H         2.7057496444        8.8129775119        5.6216938504
  H         1.7741001114        8.8890417852        7.1620037971
  C         1.0005990566       10.2697867999        5.7339536528
  S         3.3675542868       14.2745835194        6.4946880553
  C         3.9518713319       13.4653790470        5.0835194691
  H         4.7027590695       11.4066598690        4.6522491683
  C         2.2411508755       12.9399821863        9.5993775695
  H         2.3590011211        9.2036520133        9.4802884438
  C         1.8677691520       10.8999695393       10.6667714570
  H         1.4899140699       10.9869928279        5.1418805202
  H         0.6385248677       10.9309849640        6.5765383716
  C        -0.0514738450        9.5241249207        5.0266687383
  C         4.4877337682       14.2499086974        3.8787462417
  C         1.7627419337       12.2472884243       10.7436786390
  H         2.2420059612       13.9996145661        9.6435977051
  C         1.3726145245       10.5080878060       11.8927189559
  H        -0.9198612263       10.1554717164        4.9543446923
  H        -0.4507972549        8.7419357258        5.5785417289
  C         0.3771832496        9.0480179613        3.6979652011
  C         4.3518860418       15.5967408595        3.6084241142
  C         5.0718891932       13.4775396992        2.7640571814
  C         1.3845595271       12.9444535248       11.9587242300
  C         1.0207590921       11.6097133586       12.6701542762
  S         0.9303005613        9.0189509954       12.6599503536
  H         0.5494158405        7.9393753364        3.6914970611
  H         1.2822361770        9.5827056336        3.4146647803
  C        -0.6040147497        9.4939111609        2.6005363671
  N         3.8664534819       16.4582602486        4.5382895476
  C         4.5164257490       16.1870690297        2.3773274905
  C         5.0966352127       14.0054793857        1.4588019781
  H         5.3697088924       12.4453669114        2.8383668822
  C         0.1303727734       13.8355463575       11.8047966683
  C         2.6364948753       13.5904939517       12.4791185331
  C         0.5418464532       11.2301953783       13.9323811545
  C         0.4751714029        9.8705262831       14.0834326765
  H        -1.5456675930        8.9638284705        2.7362630427
  H        -0.7369752598       10.5980747080        2.6615975235
  C        -0.2286772719        9.1004764285        1.1333330633
  S         3.8268975170       17.9866280091        3.9519587436
  N         4.4928820470       17.5646409798        2.5119889370
  C         4.8659323159       15.4361493954        1.2177191725
  H         5.4835644381       13.3966561280        0.6978650638
  H         0.2030317896       14.6846346035       11.0960234953
  H        -0.1486205708       14.3899641594       12.6802949846
  C        -1.1058262344       13.0699713004       11.4881862588
  H         3.5000972469       12.8961783161       12.3505119609
  H         2.8589361016       14.4510153779       11.8076118663
  C         2.5248839609       14.0143891861       13.9693330230
  H         0.2505680949       11.9870743173       14.6398907021
  C        -0.0499797303        9.1493355691       15.2498500325
  H        -0.5054487266        8.1419209785        0.7983232676
  H         0.8410774161        9.1642127010        1.1439376180
  C        -0.7960909104       10.1743430915        0.2443377806
  C         5.0598848460       16.0932594651       -0.0338318569
  H        -0.9246952549       12.3820819517       10.6452233798
  H        -1.3574844254       12.4236658986       12.2826065935
  C        -2.3292464952       13.9027007053       11.2207174699
  H         2.1323556828       13.1586359797       14.5598421268
  H         1.7917845759       14.8298099532       14.0482701562
  C         3.8803254047       14.5882635070       14.5105338020
  C         0.0130966696        7.7684610665       15.3722060443
  C        -0.1824657430        9.8759207642       16.5595604145
  H        -1.8241405367       10.5382787592        0.5181502323
  H        -0.1990630932       11.0267612084        0.4440596620
  C        -0.7941355914        9.7018880568       -1.2078534095
  H         4.9549575297       17.1722995429        0.0366314864
  C         5.3047642576       15.7099487624       -1.3383695113
  H        -2.1465550430       14.7654545327       10.5589408754
  H        -2.5783824847       14.4072251526       12.2102211181
  C        -3.4423445419       13.0466252135       10.5759997581
  H         4.1678312925       15.3216030778       13.7998034662
  H         3.6443878535       15.1212920260       15.4518281014
  C         5.0601776357       13.5949041601       14.7749008970
  N         0.3088738756        6.8795416303       14.3983320227
  C        -0.2243415703        7.0865646200       16.6318015151
  C        -0.4550909685        9.3069307603       17.7993191512
  H        -0.2032005324       11.0157261182       16.5386040091
  H        -1.0486046555       10.6095051512       -1.7872304577
  H        -1.6177498885        8.9533336285       -1.3346561482
  H         0.1482049419        9.3286967456       -1.7162152671
  S         5.5559658542       14.1351777680       -1.8919313898
  C         5.2059661416       16.6735835612       -2.4278180332
  H        -2.9714729475       12.5465879232        9.7315071765
  H        -3.7283676390       12.2639828818       11.3197394120
  C        -4.6962374182       13.8343252881       10.2728655892
  H         4.7875246842       12.6779758844       14.3335565741
  H         5.2008697873       13.5155677663       15.8433757949
  C         6.3414097764       14.1598513761       14.1382184925
  S         0.1927311587        5.3705665942       14.8826764111
  N        -0.2283313936        5.7009242148       16.3865974476
  C        -0.4806218439        7.7912483073       17.8949318444
  H        -0.6359502779        9.9678541759       18.5846125002
  C         5.7246536489       14.8372233050       -3.5243729179
  N         5.5440507721       16.1731714457       -3.6097282631
  O         4.8089881594       17.8364951204       -2.2137411911
  H        -5.2467510647       14.0626450630       11.1412454588
  H        -4.5971056945       14.7638026434        9.7573892193
  C        -5.4714889546       13.0059569784        9.3128499427
  H         7.0833745202       13.4432770475       13.9517100991
  H         6.1350329352       14.5970763972       13.2114729205
  C         6.8910220798       15.2957663601       15.0877559991
  C        -0.8387794430        7.0904896406       19.0185876776
  S         6.4541316729       14.0201926418       -4.8991867732
  C         5.4089429224       16.8117311969       -4.8883923232
  H        -4.8365013068       12.9523277257        8.4270374685
  H        -5.6709679163       11.9863073849        9.6524510319
  C        -6.7703192319       13.5365441320        8.7780404109
  H         7.3688755655       14.8471079693       16.0016998931
  H         5.9712290547       15.8279999635       15.3596489542
  C         7.9303077870       16.2250967236       14.4457235865
  H        -0.6226724651        6.0687658485       18.9097408456
  C        -1.2912566565        7.4741108879       20.2735088336
  H         6.0037429371       16.4812235454       -5.7194086150
  H         5.9571682154       17.7248806366       -4.7617838577
  C         3.9093569340       16.9951210522       -5.3311976338
  H        -7.1468354122       12.7639845212        8.0894302010
  H        -6.6070345407       14.5132427029        8.3370356116
  C        -7.8156155554       13.7234856163        9.7997587248
  H         8.3154508345       16.7795744123       15.2445877691
  H         8.8180978557       15.7188447381       14.1279913444
  C         7.2927904931       16.9519528620       13.2677599350
  S        -1.8212339880        9.0091532430       20.7235990626
  C        -1.3854023850        6.3788404998       21.2640851135
  H         3.1534067794       16.9998932398       -4.5099353795
  H         3.5234160459       16.2582036228       -6.0570834351
  H         3.9059648257       18.0146548629       -5.8648410590
  H        -8.7868192808       13.8709480968        9.4144111803
  H        -7.9141002748       12.8851183485       10.6108585821
  H        -7.4539402043       14.6544650668       10.2452457672
  H         6.2803146104       17.0811266906       13.5974984062
  H         7.8082345871       17.8781557432       13.2043612631
  H         7.3005562435       16.2734622060       12.4177716251
  C        -2.1160494011        8.2195868747       22.3669342726
  N        -1.9667212530        6.8927589463       22.3900368417
  O        -1.2373606037        5.1834664481       20.9624368176
  S        -2.6197348897        9.0640568903       23.8597900375
  C        -2.0953305614        5.9763757956       23.5119877722
  H        -2.2619099935        4.9344654224       23.2419694401
  H        -2.9807842494        6.2878725673       24.0394488547
  C        -0.8015355213        6.0482755674       24.3937679496
  H        -0.4470328118        7.1104479362       24.5485107379
  H        -0.0888258794        5.4401384004       23.9225656718
  H        -0.9563567636        5.6152442451       25.3794058452
