352
i =
  H        -3.0647236409       15.3836487217       16.2591114499
  C        -3.0738039271       14.3697359793       16.6738848634
  H        -4.0980763693       14.3123864732       16.8581259802
  C        -2.2644210222       14.3611964659       18.0180457251
  C        -2.5941405149       13.3802397784       15.6197333777
  C        -2.7883630826       13.2477675810       18.8999809924
  H        -1.3272534042       14.1683440561       17.7831251578
  H        -2.3573798286       15.2869367314       18.4738206907
  H        -2.6448722370       12.3289764864       16.0037659845
  H        -3.2214824132       13.4507669500       14.7197537665
  H        -1.6352547478       13.7310624551       15.3728560165
  C        -1.9356016249       12.8235447916       20.0467593058
  H        -3.0239433910       12.4086950103       18.2563822955
  H        -3.8483094409       13.5540485754       19.3034507318
  C        -2.3674357911       13.4440485943       21.3837377104
  H        -2.0337204970       11.8006435024       20.0369100567
  H        -0.9057731529       12.9826259090       19.8495816580
  C        -1.5415012594       12.8195097268       22.5254049294
  H        -3.3736969485       13.1596519733       21.5686077673
  H        -2.2727605241       14.4889844687       21.2627299615
  C        -0.3237872827       13.6764599953       22.8173920965
  H        -2.1508179670       12.9196331395       23.3521599380
  H        -1.2330579823       11.7849900974       22.3000028785
  C         0.9013777657       12.9407814416       23.4811431647
  H         0.0813336893       14.0752488467       21.8498679327
  H        -0.6237977067       14.5129550925       23.4818792652
  C         1.3683114094       11.6536222006       22.7416410134
  C         0.5239857470       12.2055900383       24.6704856295
  C         2.0312561580       13.9837237881       23.7463888865
  C         1.1262980924       10.4966379050       23.5018191628
  C         1.7807980981       11.3385545600       21.4382188375
  C         0.6427058813       10.8700992507       24.7522166415
  C         0.1131574044       12.8344715750       25.7797830374
  H         2.0356786028       14.8792457981       23.0916553491
  H         1.8501214764       14.4753738081       24.7468606685
  C         3.4637539718       13.5177259260       23.9781330166
  S         1.5785781017        9.0566179247       22.7153648255
  C         2.1765854702        9.9801118554       21.3426930102
  H         1.8439539488       12.0386277638       20.5743449341
  C         0.3364240945       10.1896779446       25.9234061578
  H         0.0803550044       13.8630191049       25.7189862933
  C        -0.0789135178       12.2123771954       26.9769082721
  H         3.8984735664       12.9708199773       23.1697045653
  H         3.4803595733       12.8101657878       24.7815637967
  C         4.5157318900       14.6492854167       24.1466313591
  C         2.6614614201        9.2876307931       20.1028871418
  C        -0.0623333421       10.8706224579       27.0985715306
  H         0.5052398832        9.0674567706       26.0903034457
  C        -0.3853560783       12.6418399636       28.1468584295
  H         5.2331984789       14.3643955652       24.9134187545
  H         4.0470360093       15.5077568659       24.6618242379
  C         5.1761343145       15.1023733519       22.9108430672
  C         2.6487527206        7.9402282544       19.8209104925
  C         2.9398090443       10.1183677171       18.8887934665
  C        -0.4569154961       10.1885068754       28.3794761125
  C        -0.5798410893       11.5775129138       29.0417946162
  S        -0.6534273967       14.1736208227       28.9175201346
  H         5.3608063760       16.1443749581       23.1722658582
  H         4.4753682301       15.0830410464       22.0880765629
  C         6.4396269394       14.2693565424       22.4477868039
  N         2.3668021018        6.9651434440       20.7358022952
  C         2.9380968993        7.4181173407       18.5443782144
  C         3.3205112480        9.5905063219       17.6463636786
  H         2.7534012164       11.1526763704       19.0694091192
  C         0.6422836710        9.2998365734       28.8276715008
  C        -1.8661199784        9.5560820191       28.2741593817
  C        -0.8572886750       12.0595304688       30.3249549088
  C        -0.9589605439       13.4193558432       30.3696227916
  H         7.3594760577       14.8637222287       22.0899732404
  H         6.8087792728       13.7194767033       23.2912391377
  C         5.9907314947       13.3115496515       21.3259802543
  S         2.5691558445        5.4548051297       20.0915113924
  N         2.9355837122        5.9666026995       18.5990616312
  C         3.2864510488        8.1219725104       17.3688905591
  H         3.6812275521       10.2969142641       16.9129868001
  H         0.7549586485        8.5018998042       28.0885854128
  H         0.3563848377        8.6858496017       29.6761596217
  C         1.9305588247       10.0274027637       29.2858733257
  H        -1.7163749143        8.5083847237       27.9223707249
  H        -2.1984500818        9.5143690523       29.3661653465
  C        -2.9432022792       10.4721577761       27.6434920404
  H        -1.1517611293       11.4033845627       31.0558319474
  C        -1.3059190797       14.2308618761       31.5338924372
  H         4.9081122884       13.1406452894       21.3135979352
  H         6.4556066331       12.4185787439       21.5636677465
  C         6.5358677005       13.7690295797       19.9762975369
  C         3.4812778909        7.3695864686       16.1340843682
  H         2.1838855228       10.8239317195       28.5231774880
  H         1.6864482572       10.5881537426       30.2310300718
  C         3.0946793098        9.0439966216       29.5401948913
  H        -2.6343385593       11.0147882136       26.7217137279
  H        -3.0395671875       11.2984508162       28.3344126899
  C        -4.2876918420        9.7300099031       27.4970848591
  C        -1.5441398932       15.6241503646       31.5288068654
  C        -1.5641947180       13.5275408373       32.7982793402
  H         5.9979084886       13.2202823947       19.1848621728
  H         6.2466610950       14.7786133726       19.9700091649
  C         8.0464689953       13.5790538778       19.7624171874
  H         3.4623303251        6.3266300367       16.2328744478
  C         3.8077390406        7.8070056105       14.8708100201
  H         3.2028288728        8.5773525188       28.6600253933
  H         2.8044029510        8.2760777123       30.2746551410
  C         4.3236424478        9.7873314983       29.9438599004
  H        -4.3095170988        8.7979488418       26.8306533958
  H        -4.5066353012        9.4142875169       28.5490184367
  C        -5.4772198992       10.6386409298       27.0797281150
  N        -1.3890681456       16.5604094215       30.4656432661
  C        -2.0063744180       16.3338735414       32.6383927312
  C        -1.8638494650       14.2111232308       33.9172784770
  H        -1.4316495526       12.4326511082       32.8872120121
  H         8.5805440346       14.5702467349       19.8100532583
  H         8.4429735569       12.9313039863       20.5183828014
  H         8.3115180656       13.0922540049       18.8387225001
  S         4.0461027693        9.3629018482       14.2086533044
  C         3.8998270162        6.6955279992       13.9108204350
  H         4.3816942622       10.6716197418       29.2946071120
  H         4.0821065644       10.2917951454       30.9160579127
  C         5.5654903352        8.8862193602       29.9839956190
  H        -5.1215948383       11.5003752565       26.4844586209
  H        -5.9255667498       11.0048087726       28.0272414469
  C        -6.6533683798        9.8537661206       26.3297626060
  S        -1.3929069118       18.0579707302       31.0358509965
  N        -2.1072091826       17.6996448942       32.4687525028
  C        -2.0955005358       15.6917249671       33.8779690955
  H        -1.9991164710       13.6820411179       34.8209379096
  C         4.3186092985        8.5668218477       12.6734524310
  N         4.2409245492        7.1911430454       12.6923769011
  O         3.4201336254        5.5727746237       14.0839982317
  H         6.4712547894        9.4689108831       30.0098002065
  H         5.6525523207        8.3601796642       29.0200329879
  C         5.4395350208        7.8718656270       31.1347118823
  H        -6.1743994972        9.2219240863       25.5893434027
  H        -7.2948360158        9.1712402572       26.9098669616
  C        -7.5577429749       10.8992885069       25.6269422383
  C        -2.4551534276       16.4382817417       35.0764706424
  S         4.8566430931        9.4613871839       11.2226548805
  C         4.1399609743        6.4180523349       11.4594662774
  H         5.5822559112        8.3724601651       32.0939779375
  H         4.4403437015        7.6010679057       31.3392685994
  C         6.2716218703        6.6326511913       30.9056437816
  H        -6.9415359067       11.3695737080       24.9166649641
  H        -7.8873690232       11.5818896924       26.3959671773
  C        -8.7492331474       10.2779328986       24.8963893374
  H        -2.2767925461       17.4655997601       34.8658596554
  C        -2.8644231376       16.0783711221       36.3506489723
  H         4.9114907031        6.7795985989       10.7416304282
  H         4.2999054536        5.4138519825       11.6584138161
  C         2.7030109788        6.4819888638       11.0422711349
  H         7.2700024863        6.9172890997       30.9499700037
  H         6.1846039267        6.2836311548       29.8809576652
  C         5.9589453985        5.4836661651       31.8926742779
  H        -8.9573634368       10.7731378226       23.9515107124
  H        -8.5633376507        9.2728693669       24.6740633410
  C        -9.9104821024       10.1147839506       25.8028489255
  S        -3.1698123400       14.4719354408       36.9533995266
  C        -3.0499014258       17.1710125818       37.3797182439
  H         2.4902301587        6.2859971064        9.9675248775
  H         2.0844567239        5.6864167176       11.5782394363
  H         2.2048186216        7.4458931306       11.2554254870
  H         6.3368607025        4.5199137703       31.5648920356
  H         4.8824627346        5.4184304752       32.0362106088
  H         6.4358460837        5.6807799762       32.8281728749
  H       -10.7110335764        9.6208692970       25.2174747206
  H       -10.3228253425       11.0089588762       26.2828551302
  H        -9.6716089830        9.4240567147       26.6487948953
  C        -3.5600122059       15.2634983727       38.4595107433
  N        -3.5812143891       16.6396537157       38.4669907252
  O        -2.5812592077       18.3044096633       37.3017842386
  S        -4.2321234567       14.3052344677       39.9066011678
  C        -3.7590498852       17.4724260148       39.7048699601
  H        -4.1930229441       18.5039589274       39.5036020140
  H        -4.5995446386       17.0035840652       40.2714439777
  C        -2.4482256258       17.6305672162       40.4082149238
  H        -1.6800269940       17.0629655501       39.9071682702
  H        -2.1216762778       18.6446279090       40.5885541382
  H        -2.5918403909       17.2433977863       41.4525566061
  H         7.4155503581       11.1715578051        3.3280435766
  C         8.3390683804       10.6296082651        3.4609171958
  H         8.0195038838        9.5560484528        3.6409930953
  C         9.1245071177       11.0515638032        4.7399261572
  C         9.1778745670       10.6298286758        2.1492941222
  C         8.2923733159       11.1540283672        6.0597016826
  H        10.0023906107       10.4175731255        4.9514085584
  H         9.6526168472       11.9881349229        4.6113995663
  H         8.5422803902       10.5236936270        1.2168276681
  H         9.8256731016        9.7320974003        2.1777549033
  H         9.8240085477       11.5214028126        2.0576874926
  C         7.6480678525        9.7830664348        6.4704437312
  H         8.9350477630       11.4257285989        6.8656356120
  H         7.4282555858       11.7804538380        6.0230070339
  C         6.6800905581        9.7330248733        7.8044318355
  H         8.4697475065        9.0440896713        6.4909767193
  H         7.0698743958        9.5172095807        5.6231157187
  C         5.3864826423       10.6296985201        7.6843372909
  H         7.3643760010       10.2844499292        8.4975166445
  H         6.5240171732        8.7114078094        8.1076143588
  C         4.1741348941        9.9763992967        7.0193856449
  H         5.1659629407       10.7834870241        8.6975412086
  H         5.6269384817       11.6115940459        7.3230109773
  C         2.9220641843       10.8418089628        6.9002592083
  H         4.0885688586        9.0140915182        7.4574615805
  H         4.5156679481        9.6950425702        5.9856953056
  C         3.2576365551       12.2124714696        6.3055935261
  C         2.5952507882       11.4714016453        8.2205188012
  C         1.8133948162       10.0617882413        6.2908613644
  C         3.0446826305       13.3424364417        7.0975870891
  C         3.5389267840       12.6306323864        5.0298502729
  C         2.6233946595       12.8599897840        8.3576478898
  C         2.2139764017       10.7911231028        9.3632194823
  H         2.0656625105        9.4549762427        5.3684366667
  H         1.4872956562        9.2990645290        6.9625305666
  C         0.5360678251       10.9186828423        6.0053499111
  S         3.5241126545       14.8420179372        6.4523634520
  C         3.8892502527       13.9221166863        4.9844628047
  H         3.7265861806       11.8426722848        4.2894537303
  C         2.3028853552       13.4350752162        9.5676044522
  H         2.3755039707        9.6807553750        9.3538582273
  C         1.7874334374       11.3745252298       10.5295453788
  H         0.8359459554       11.9272875159        5.6119188703
  H        -0.0041186753       11.2071739207        6.8808389007
  C        -0.4790750922       10.2650345696        4.9819484833
  C         4.4750230941       14.5792971548        3.7534409190
  C         1.8179726858       12.7137621557       10.6767821702
  H         2.4718401306       14.4552062699        9.6744763384
  C         1.2931955721       10.9219927423       11.7326312057
  H        -1.3037081990       10.9553242471        4.9327726638
  H        -0.8155988709        9.3242758877        5.2694434667
  C         0.0447570519       10.1845888101        3.6591763933
  C         4.4107611725       15.9240515141        3.4178069536
  C         5.1134600076       13.7207483649        2.7582017423
  C         1.3997143665       13.2983788566       11.9242197063
  C         1.1590994774       11.9511541593       12.6071602005
  S         0.9089960236        9.3585036258       12.3811152895
  H         0.6327525244        9.2363740036        3.6253196122
  H         0.7225510830       11.0121245694        3.3660494780
  C        -0.9931745309       10.3159026521        2.5464655596
  N         3.8472521745       16.9474664693        4.1740872046
  C         4.6937438160       16.3889493776        2.1112676214
  C         5.4628244093       14.1772184415        1.5111701843
  H         5.2566784941       12.6558429423        2.9535110471
  C         0.0613576920       14.0715481175       11.8835033787
  C         2.4469650848       14.1054367041       12.7374001400
  C         0.6975755474       11.5044178393       13.8787615616
  C         0.5434310638       10.1595146728       13.9004698230
  H        -1.7813848659        9.6780046709        2.9660919612
  H        -1.4123819368       11.3530946457        2.6010704086
  C        -0.4495858583        9.9931608893        1.1552342701
  S         3.8860775733       18.3022550562        3.2833691139
  N         4.5241853416       17.7444978182        1.9201381004
  C         5.1752344431       15.5963385289        1.0751999067
  H         5.8255646826       13.4213534416        0.8041573961
  H         0.3228311066       15.0711224264       11.4947509487
  H        -0.3565908434       14.1832864457       12.9082873768
  C        -1.0106632345       13.4169232417       10.9908388126
  H         2.5002690894       15.0932672281       12.4842392252
  H         2.0297081839       14.1427004524       13.6935404077
  C         3.8209074292       13.4446623297       12.9070568630
  H         0.5023902898       12.2742305253       14.6488957415
  C         0.1939891308        9.3972028478       15.1226938947
  H        -0.0684975289        8.9543264921        1.1885821974
  H         0.3261274276       10.7124664473        0.9376385571
  C        -1.5000121358        9.9178966683        0.1244603623
  C         5.3020854286       16.1242777035       -0.2489952714
  H        -0.6341003200       13.2779990611        9.9438762441
  H        -1.1685638204       12.3901296100       11.4091744274
  C        -2.2190677424       14.2997992186       11.0526648996
  H         4.5329065309       13.7280230974       12.1488894927
  H         3.6170091539       12.4114552269       12.6795728565
  C         4.3933226363       13.6465395602       14.3476952564
  C         0.2844149768        8.0084210938       15.3822468860
  C        -0.0851471822       10.2061341797       16.3586287616
  H        -1.9111417150        8.9601712363        0.0257776423
  H        -2.3330091503       10.5773674986        0.3909799442
  C        -0.8981808889       10.3142689341       -1.1979118251
  H         5.3563084816       17.2487218891       -0.3725642191
  C         5.6468109748       15.6264743803       -1.4572197785
  H        -2.3235427727       14.5815298245       10.0342718018
  H        -1.9097851714       15.2115457211       11.5691137854
  C        -3.5245411266       13.6570196892       11.6586928246
  H         4.2913726712       14.6308046805       14.8652482070
  H         3.9303758022       12.8770441641       15.0364263639
  C         5.9121524811       13.2497612686       14.3926515472
  N         0.6914099593        7.1489763081       14.3497920978
  C        -0.0235428365        7.4420810354       16.5665715551
  C        -0.3423426352        9.6189817843       17.6258837714
  H        -0.2244304178       11.2883474918       16.3340448724
  H        -0.1443961611        9.5800175288       -1.6298362159
  H        -0.5913248561       11.3463422436       -1.3173433997
  H        -1.6142347925       10.2549617453       -1.9699750060
  S         5.8248967644       14.0014001721       -1.8348418717
  C         5.7238419901       16.5767500831       -2.5959296400
  H        -3.3598453348       12.5913163105       11.8337882705
  H        -3.5138975294       14.1948432393       12.5490859304
  C        -4.7847267854       14.0130865457       10.8595502167
  H         6.2225061622       13.1503797945       13.4467633927
  H         5.9670989883       12.2754065540       14.8787980055
  C         6.8463571545       14.2009916059       15.2246292780
  S         0.5623199176        5.6896224159       14.9503705212
  N         0.0240077311        6.0616428613       16.4699885950
  C        -0.3076107795        8.1483190606       17.7536315776
  H        -0.4966359938       10.3054241670       18.5140043774
  C         6.2545377350       14.5486913292       -3.3850432649
  N         6.2724001163       15.8717699761       -3.6156415217
  O         5.3895683386       17.7573127887       -2.6611984817
  H        -5.6650808448       13.9324226420       11.5566333352
  H        -4.6716932772       15.0394441886       10.5577547166
  C        -4.8100779343       13.0663550662        9.6756971143
  H         6.5198475865       14.2423910911       16.2559537721
  H         7.9133664853       13.7474879485       15.2062641117
  C         6.9902027740       15.5436824841       14.4778194059
  C        -0.4246655699        7.3810760955       18.9141709332
  S         6.2842899913       13.5660634966       -4.8759230126
  C         6.4332596830       16.4423252931       -5.0708027865
  H        -3.8061236317       12.8904638930        9.2585877096
  H        -5.0765608669       12.0672018394       10.0152844857
  C        -5.8954858998       13.4802061394        8.6206172028
  H         6.0520382990       16.0526147649       14.7238851941
  H         6.8811339590       15.3221012410       13.4289302451
  C         8.2587193753       16.3512723176       14.7492575014
  H         0.0163483837        6.4223398212       18.8576412566
  C        -0.8358442738        7.6575496565       20.1931149768
  H         7.2443504905       15.8210652013       -5.4722092530
  H         6.7750236132       17.4854169491       -5.0259048212
  C         5.1072835346       16.3690357145       -5.8797403025
  H        -5.9100195010       12.7294944581        7.8152746441
  H        -5.7330624767       14.4363676397        8.1447260499
  C        -7.1612074098       13.6972956959        9.2367984551
  H         8.5700246022       16.2481991385       15.7962574928
  H         9.0226062064       16.1467080816       13.9567276431
  C         7.9597256396       17.8227305038       14.5803496051
  S        -1.5743649707        9.0879526566       20.7143780587
  C        -0.9456396473        6.5106915026       21.0179307235
  H         4.6348297588       17.2910248903       -6.0416220592
  H         4.4271851744       15.6515735613       -5.4307339341
  H         5.5298921196       15.8881591056       -6.7609307281
  H        -7.1519092773       14.7314349784        9.6383668854
  H        -7.9774572709       13.7826305708        8.5216738841
  H        -7.2939981345       12.9548075610       10.0396407026
  H         7.2704083439       18.1605482557       15.3494800335
  H         8.8038402194       18.4810501478       14.7443642317
  H         7.5472088028       17.9662273971       13.5950707084
  C        -1.9051909481        8.2364558114       22.1536730344
  N        -1.6572045103        6.9270630393       22.0859084189
  O        -0.6222820377        5.3833026750       20.7330791422
  S        -2.7619718105        8.9437680184       23.5214537677
  C        -1.7273324231        5.9366282403       23.1139994012
  H        -1.8238164561        4.9592634761       22.6798186429
  H        -2.6430887584        6.0967412176       23.6029199814
  C        -0.5429433443        6.0126636468       24.0860712593
  H         0.3760212003        5.6726435864       23.6694965021
  H        -0.8259332254        5.4134620116       24.9898047356
  H        -0.3568235495        7.0014783993       24.5090654676
