352
i =
  H        -3.2426892542       15.0487572920       16.3108678594
  C        -2.9255475164       14.0544805672       16.4820233834
  H        -3.8403925693       13.6554770771       16.6532445887
  C        -1.8418550422       14.1060177271       17.6083532597
  C        -2.4727838717       13.5078323332       15.1715187016
  C        -2.4019092152       14.4400682223       18.9125418158
  H        -1.2306215983       13.2170784626       17.6610394705
  H        -1.0771250821       14.8571142648       17.4845758954
  H        -2.5661214905       12.3729529743       15.1876918600
  H        -3.1264341643       13.8429940447       14.2724879893
  H        -1.4498508076       13.7134119483       14.9689919411
  C        -2.3431049065       13.2078885506       19.8809788140
  H        -3.3679004385       14.9433222820       18.9472628205
  H        -1.6742816491       15.0979841539       19.4975486326
  C        -2.5998409185       13.5016278046       21.3397595548
  H        -2.9502543109       12.3730472567       19.4631340170
  H        -1.4064551011       12.7834127261       19.6835097746
  C        -1.6222494760       12.8008099139       22.2424214629
  H        -3.5319428314       13.0670222397       21.4348413849
  H        -2.8574868976       14.4901960484       21.5496058141
  C        -0.4151375475       13.7215618880       22.5277656282
  H        -2.1851013594       12.5517309600       23.1686497102
  H        -1.3121358919       11.8456423053       21.8159891021
  C         0.7710423308       13.0259740814       23.2119338242
  H        -0.0140024005       14.1594803130       21.5655109613
  H        -0.5533192683       14.5200169139       23.2236892404
  C         1.2169180985       11.6854915857       22.5039065493
  C         0.3700733286       12.2742573709       24.4204144097
  C         1.9945666681       13.9448855207       23.4612696847
  C         0.9513107993       10.6026743242       23.3327229738
  C         1.8585698352       11.2738314656       21.2193045734
  C         0.4799325439       10.9301948988       24.5285672868
  C         0.0228842699       12.8612718784       25.6201250971
  H         2.0288247025       14.4914294416       22.4728240588
  H         1.6440557991       14.5697844492       24.2606200498
  C         3.3168390725       13.3191585825       23.9375429027
  S         1.5671870007        9.1085802461       22.6570914836
  C         2.1327889756        9.9241322199       21.2068100271
  H         2.0363282173       11.9883824975       20.4131964105
  C         0.2617829567       10.2508411038       25.6868484117
  H        -0.0298836394       13.9309533552       25.7025752361
  C        -0.0949572288       12.2044820353       26.8295970063
  H         3.7558384531       12.6229761524       23.2334975063
  H         2.9771522078       12.6594024786       24.7268253840
  C         4.4689260404       14.2526624391       24.3138782161
  C         2.7045091094        9.2449563286       19.9913285176
  C        -0.0763262027       10.8279544768       26.9084951625
  H         0.5444997616        9.2038409637       25.7945120450
  C        -0.5093038535       12.6013221483       28.1464460428
  H         5.0239515542       13.7190234777       25.0678338345
  H         4.0250631155       15.2130448120       24.7706275382
  C         5.3557306764       14.5772232754       23.0952599510
  C         2.4986640385        7.8576831878       19.6956380780
  C         3.0868062965       10.1274123407       18.9441338318
  C        -0.4578339491       10.2095891221       28.1852297680
  C        -0.6992326327       11.4929800018       28.9130488215
  S        -0.7297543587       14.1051870733       28.8145304474
  H         5.7083036778       15.6055400680       23.2708543630
  H         4.8121485256       14.7992083761       22.2548589208
  C         6.5047466193       13.5422895515       22.7822427828
  N         2.1776611056        6.8487100881       20.5505706492
  C         2.7347538230        7.3814216736       18.3971067646
  C         3.1301643355        9.6906777797       17.5982824662
  H         3.4469098076       11.1514048680       19.1516085669
  C         0.6967413258        9.4387926388       28.7943215594
  C        -1.7306160387        9.4145359831       28.1025943286
  C        -1.0679786585       11.9283058320       30.1927024645
  C        -1.2395195601       13.3069180818       30.2568351478
  H         7.2040925808       13.3578758124       23.5532412570
  H         6.0694961855       12.6061122090       22.7029435118
  C         7.3069244776       13.7234027445       21.4870526980
  S         2.0447788987        5.4234218307       19.7239012460
  N         2.5317218809        5.9884803512       18.3435562598
  C         2.9577588800        8.2256658863       17.2920097021
  H         3.4156961660       10.2631279946       16.6389759995
  H         0.9426281639        8.6011466751       28.2074073284
  H         0.3015774630        9.1032453735       29.7689265447
  C         1.9443651963       10.2967683294       29.0028085793
  H        -1.5128268348        8.7724790040       27.2088779812
  H        -1.8658668250        8.6275457635       28.9182902172
  C        -2.9081790108       10.2075240716       27.7289014191
  H        -1.2806711151       11.1503026211       31.0123549300
  C        -1.4843972347       14.0743251640       31.5425171151
  H         8.0331118695       12.8237154548       21.5793768801
  H         7.8321860690       14.6837003314       21.5158969860
  C         6.3790667892       13.4893908402       20.3394733198
  C         3.1738454569        7.6521233335       16.0263579340
  H         2.2302672814       10.8232836945       28.2426731850
  H         1.6224806015       11.0399622114       29.6737478733
  C         3.1677220397        9.6467594631       29.8176322610
  H        -2.9014866818       10.7863317887       26.7814293374
  H        -3.0446773408       10.9495506911       28.4837506982
  C        -4.2831041886        9.4244740000       27.8499707336
  C        -1.4316956225       15.4737962689       31.7228339853
  C        -1.7722069854       13.3022478189       32.7800084326
  H         5.7811812176       12.6296474918       20.5099458385
  H         5.7321754294       14.3056663923       20.0694174633
  C         7.2900255408       13.2576298232       19.2127910821
  H         3.0027184786        6.5929947633       16.0619738339
  C         3.3934974923        7.9721437950       14.6944480398
  H         3.7082984161        8.9965867970       29.0721126474
  H         2.7153780870        8.9114706615       30.5450325584
  C         3.9608647001       10.6180961872       30.4680968623
  H        -4.3097487719        8.5511156964       27.1367542574
  H        -4.5790174720        8.8676285017       28.7668268308
  C        -5.3778220602       10.4649611906       27.4373603526
  N        -1.1312662090       16.3780340951       30.7253773691
  C        -1.7995570591       16.1719497360       32.8732107116
  C        -1.9684844018       13.9538744331       33.8809297118
  H        -1.8162344896       12.2095312530       32.8467329838
  H         7.8441651995       14.1446725371       18.9279769589
  H         8.1618956001       12.6102748515       19.5087678552
  H         6.6412839119       12.8915701105       18.2889206351
  S         3.9549809572        9.5429385386       14.2817114930
  C         3.3790605114        6.9811386345       13.6380839106
  H         4.1518391272       11.4067935775       29.7460356339
  H         3.2726732105       11.2518617857       31.1372155821
  C         5.2929024436       10.1699742754       31.1316999934
  H        -5.2169680035       11.1914858388       26.6408331441
  H        -5.7540812801       11.0934986279       28.2599035467
  C        -6.6415830876        9.6958778445       26.7442343346
  S        -1.3897478234       17.8969433370       31.1977399295
  N        -1.7354345797       17.5363527652       32.7746219463
  C        -2.1148786666       15.4416899290       34.0254427878
  H        -2.0678003839       13.3365939677       34.7715928902
  C         3.9779559783        8.9410354263       12.6406659114
  N         3.8621724506        7.5364961569       12.5129607139
  O         2.9545399185        5.7796914328       13.8088251945
  H         5.3464348081       10.8441116964       31.9151879042
  H         5.9934592018       10.4304423396       30.3211785452
  C         5.3965003639        8.7531101229       31.6967250757
  H        -6.2440064656        8.7996040538       26.2483980332
  H        -7.1121980744        9.2830719483       27.5230874545
  C        -7.4324606027       10.4471611105       25.6707507933
  C        -2.5607344713       16.1503136697       35.1096943520
  S         4.6723890393        9.8319918699       11.3313578885
  C         3.9877557609        6.8695600070       11.2914528238
  H         5.9302880129        8.9704958896       32.6051018854
  H         4.4152377996        8.4372533467       32.0079026323
  C         6.1871972405        7.7637523934       30.7297038912
  H        -7.0625542043       10.1442272293       24.7004854908
  H        -7.3502110418       11.5256954314       25.8381070698
  C        -8.8043721534        9.8788457374       25.6945955322
  H        -2.7458056423       17.1405710678       34.8957830569
  C        -3.0485145770       15.8435531875       36.3650247045
  H         4.7539631972        7.3062253014       10.6905439220
  H         4.4334388476        5.9682784444       11.7132829363
  C         2.6809266665        6.7394157235       10.5649354305
  H         7.2332892999        8.0329812894       30.6069662282
  H         5.7169117806        7.8232856197       29.8166037819
  C         6.2031286169        6.3922637185       31.3553575211
  H        -9.2559476991        9.7531692113       24.6395361918
  H        -8.8283791289        8.9432912844       26.2015257228
  C        -9.7273719883       10.7853773908       26.3431577615
  S        -3.6471673120       14.2983292049       37.0005333184
  C        -3.0608732146       16.8531394173       37.4818759844
  H         2.2566349863        7.7787293875       10.4746232718
  H         2.7476358167        6.1861774019        9.5760361245
  H         1.8003088227        6.4145848767       11.1478345917
  H         5.3060360538        6.1795323561       31.9674091465
  H         7.0223383372        6.1664956925       31.9476968054
  H         6.1863103788        5.6986120327       30.5594116951
  H       -10.7727120748       10.5927335237       26.3867960330
  H        -9.5089268327       11.7745016601       26.3490098084
  H        -9.4073642204       10.5914811477       27.3489054743
  C        -3.9519994945       15.1092156236       38.4931109913
  N        -3.7459662500       16.4033587782       38.5459802506
  O        -2.6122248902       18.0268116689       37.2755951939
  S        -4.6055071557       14.1558806232       39.7853140174
  C        -4.0535500403       17.2007716249       39.7855830320
  H        -4.3079532179       18.2545902120       39.6039415824
  H        -4.8521061914       16.8585156952       40.3750096317
  C        -2.7846851193       17.1445678731       40.5918630686
  H        -2.8475874345       17.9381946536       41.3680860567
  H        -2.8116019098       16.1654770060       41.2740171743
  H        -1.9325178381       17.3383467531       39.9867227848
  H         7.9604723577       11.2701239138        3.2779230258
  C         8.4432356671       10.3737766933        3.4253732735
  H         7.7153054714        9.5141843532        3.5780049230
  C         9.1222200297       10.3003615743        4.8081728509
  C         9.1975163194        9.9719267128        2.1475105289
  C         8.1204786054       10.3958104648        6.0225585658
  H         9.5764563677        9.4160117282        5.0518587361
  H         9.9157553838       11.0167226113        4.8750751100
  H         8.4711055981        9.4548761836        1.4941152869
  H        10.0871593491        9.3837603281        2.3758497125
  H         9.4886784667       10.9031716537        1.7785807431
  C         7.1243213250        9.2138482177        6.1680708683
  H         8.5604108342       10.7245302217        6.9802695214
  H         7.6607434028       11.3101272716        5.7837473286
  C         6.4203327767        9.2255602721        7.5792376022
  H         7.5061061213        8.1922102909        5.9686979435
  H         6.3694087309        9.5341603899        5.4462232038
  C         5.2991565493       10.1822249248        7.7172045928
  H         7.2003793832        9.5128080241        8.3771194863
  H         5.9050739580        8.2401990668        7.7893678874
  C         3.8619900983        9.7604677905        7.2252030768
  H         5.2565677092       10.4665564970        8.8137369030
  H         5.4832584585       11.0818458309        7.2268834673
  C         2.6736768271       10.7268642699        7.0448713440
  H         3.5897887339        9.1176839619        7.9835020925
  H         4.0180107434        9.2802183516        6.3541177747
  C         3.0605374928       12.0355131464        6.3460557004
  C         2.3440084129       11.4212223407        8.2563837348
  C         1.4426211636       10.0090865012        6.4338176356
  C         2.9619179783       13.1897142787        7.1554127943
  C         3.5642567637       12.4433847251        5.0536977077
  C         2.4113290705       12.7581213188        8.3318127814
  C         1.9182078708       10.7757703632        9.4234759732
  H         1.7072859743        9.6248964809        5.5167460427
  H         1.3396816048        9.2352136558        7.0756865597
  C         0.1860906846       10.8254314826        6.0352162750
  S         3.6135611246       14.6797038830        6.4209976025
  C         3.8153528011       13.8187274122        4.9527098299
  H         3.4762332201       11.6756692099        4.2777266403
  C         2.0744191846       13.3788872010        9.4985687229
  H         1.8139650550        9.6892783620        9.2707142422
  C         1.5408920287       11.4183264719       10.5770198132
  H         0.3595154182       11.7824341689        5.6397490575
  H        -0.4211009055       10.8996334028        6.9500313596
  C        -0.4059927765       10.1710219268        4.8071219416
  C         4.1019804923       14.4212052477        3.5845816128
  C         1.5921771777       12.7431551701       10.6799945685
  H         2.2755958720       14.4620448001        9.6921306230
  C         1.1319288148       11.0264568008       11.8231973134
  H        -1.4357714799       10.2666811753        4.8053362611
  H        -0.3067899405        9.0682154514        4.9799188378
  C         0.2914012489       10.5835483899        3.4927430272
  C         4.0874652353       15.7963364914        3.2941276493
  C         4.4985583308       13.4557755376        2.3941909220
  C         1.2400074412       13.4031018602       11.9664444944
  C         0.9651506639       12.1392739832       12.6408341918
  S         0.8286684543        9.5580673670       12.6142353849
  H         1.4391343435       10.4407743867        3.4500062645
  H         0.2279725306       11.6307267494        3.3261015821
  C        -0.4385185947        9.9692570705        2.2647993460
  N         3.8600521607       16.7641664853        4.2591914017
  C         4.4331622058       16.3805658933        2.0754481125
  C         4.9764928632       14.0622025777        1.2049135421
  H         4.7914456721       12.5235099818        2.7111744070
  C        -0.0434421071       14.3945469873       11.8468554134
  C         2.4670005499       14.0391590648       12.7424808606
  C         0.5640263039       11.7292733842       13.9609933721
  C         0.4790025738       10.3549169585       14.0575172670
  H        -0.0774894226        9.0297853603        2.2681080854
  H        -1.5191619185       10.0317749812        2.4882960831
  C        -0.0896224595       10.7280205851        0.9561522012
  S         3.9188065813       18.2805144653        3.5356958675
  N         4.3662812285       17.7473064868        2.0448209134
  C         4.7582567354       15.5609315139        0.9374134663
  H         5.2462469902       13.4236753951        0.3136709079
  H         0.1705329487       15.3581524254       11.4389551612
  H        -0.3845576967       14.5528225090       12.7646147610
  C        -1.0535965173       13.6900214156       10.9778100789
  H         2.7500888265       14.9979476230       12.2637813572
  H         2.1260942625       14.3671285259       13.7184340104
  C         3.6954160701       13.2311119751       13.0850884799
  H         0.3981389485       12.5082971345       14.6852436438
  C         0.2072355883        9.5987358773       15.3630334176
  H         1.0145880597       10.8672823837        0.9066599186
  H        -0.6924155935       11.7142980809        1.0549844129
  C        -0.4906540473        9.8766722423       -0.2488637423
  C         5.0066615977       16.2082389853       -0.2772384094
  H        -0.6198973038       13.9052915171        9.9791908894
  H        -1.0895965846       12.6351158871       11.2501297130
  C        -2.4524935746       14.3488306505       10.9032977079
  H         3.9396036324       12.6807561575       12.1417354122
  H         3.4572917696       12.3714775737       13.7989006254
  C         4.7329005648       14.2396413036       13.7292461754
  C         0.0685575305        8.1584836908       15.5064157464
  C        -0.0095632768       10.4051134319       16.5708669992
  H         0.4466846347        9.6541830992       -0.8381663634
  H        -0.9403786467        8.8764204011        0.0791470317
  C        -1.3231981086       10.6121263507       -1.2604526178
  H         4.8932816738       17.2501196475       -0.3097014262
  C         5.3021241321       15.7911917544       -1.5346540667
  H        -2.4690086743       15.0336038625       10.0499838854
  H        -2.7246448861       14.9838092872       11.7183827521
  C        -3.6309345651       13.4935662031       10.7201799759
  H         4.8167091770       14.9556070460       12.9214358916
  H         4.2926858734       14.6545829380       14.5701393068
  C         5.9473832024       13.4317567899       14.2184848179
  N         0.2221602268        7.1933021539       14.4706609031
  C        -0.0816886187        7.5232872591       16.7247285818
  C        -0.2897276838        9.7890641052       17.7978622601
  H         0.0666823130       11.4584348307       16.5536686549
  H        -0.6423599583       11.3018881840       -1.6411229737
  H        -2.0905850892       11.2313447922       -0.7711282208
  H        -1.7743251261       10.0285672843       -2.0867887958
  S         5.7213154031       14.1817213744       -1.9715039568
  C         5.2760511341       16.7646968787       -2.5914221813
  H        -3.2511038477       12.7278374942       10.0807897308
  H        -3.7975831199       12.9129951654       11.5054701607
  C        -4.9563366081       14.1380823010       10.0839567646
  H         6.0765726101       12.7311590985       13.4821175044
  H         5.6877855814       13.0976996436       15.2858996971
  C         7.2104479435       14.3333869942       14.2693366371
  S        -0.0705542103        5.6917647449       15.1098096026
  N        -0.1745856948        6.1582978647       16.6483610605
  C        -0.3524125755        8.3043891388       17.8909271860
  H        -0.4995401834       10.4848870466       18.6307626300
  C         5.8054672433       14.8192837102       -3.6434437643
  N         5.7537194556       16.1651703174       -3.7500730355
  O         5.0021292692       18.0114679986       -2.4584326764
  H        -5.5408348875       14.6327725056       10.7581908164
  H        -4.6736775843       14.8761819532        9.3094173268
  C        -5.8994375927       13.0564989318        9.6204828396
  H         8.0468528085       13.7212324554       14.6456586340
  H         7.4768901966       14.6771058635       13.2694863611
  C         7.1050588072       15.5003004578       15.2785478462
  C        -0.6814818912        7.6209487389       19.1369504959
  S         6.3809942192       13.8615124558       -4.9417651330
  C         5.9739558751       16.9289733677       -5.0525519107
  H        -5.4385479141       12.7707526234        8.6327945787
  H        -5.9586642667       12.1048430166       10.1672463533
  C        -7.3123181278       13.6104570024        9.3776371162
  H         7.6050048060       15.4512785548       16.2760371353
  H         6.1080340783       15.5697838324       15.7129043279
  C         7.4548101410       16.8415167027       14.7019259270
  H        -0.4083032073        6.6232526977       19.2532663502
  C        -1.3841733947        7.9785891602       20.2292806330
  H         6.5919774046       16.3916104264       -5.6844416507
  H         6.5073410994       17.9304285583       -4.9502863071
  C         4.5623619114       17.3064697336       -5.5339471552
  H        -7.8127934029       13.2811541316        8.5069547649
  H        -6.9280317295       14.5565231478        8.9728106496
  C        -8.1829923146       13.3125525205       10.5914230020
  H         7.0917536427       16.9808595240       13.6872091713
  H         6.9526013183       17.5534679821       15.3771571725
  C         8.9946548817       17.0792930294       14.7690002486
  S        -2.2093903703        9.4757776423       20.4703255407
  C        -1.3384419239        7.0188198850       21.3422855134
  H         4.1276193761       16.4231981058       -5.9981517753
  H         4.8325927122       17.9208059991       -6.4385423255
  H         3.9850544419       18.0633942340       -4.9640473038
  H        -7.8013175201       12.4248949728       11.1706598972
  H        -8.3085243836       14.2750409076       11.0392518631
  H        -9.2366189350       12.9626786799       10.2544156775
  H         9.3682460376       17.9946890170       14.3049253892
  H         9.1824174366       17.2421432063       15.8063447666
  H         9.5718106889       16.2797838570       14.3952296212
  C        -2.3519778804        8.8819376043       22.1719089729
  N        -2.0461560593        7.5760711732       22.3363984986
  O        -0.8409294076        5.8556327149       21.1831287477
  S        -3.4311034294        9.6201795210       23.4264702352
  C        -2.1921650151        6.8549762518       23.5380247361
  H        -2.3475871782        5.7891767042       23.3147098760
  H        -3.0457989884        7.2208150291       24.0908281644
  C        -0.8981800780        6.7678556380       24.4853356703
  H        -0.1330898328        6.4028709407       23.8628853531
  H        -0.9806753704        6.0347572396       25.2076158808
  H        -0.7479837149        7.8514813069       24.8980483623
