352
i =
  H        -2.7075928175       15.3253216114       16.7544660260
  C        -2.9567283703       14.2946928553       16.5594489948
  H        -3.9869472647       14.1386375444       16.7168295350
  C        -2.2326811503       13.3970320808       17.5195595226
  C        -2.8065600967       13.8693985062       15.0602657320
  C        -2.7495766950       13.4989137669       18.9615813469
  H        -2.4798048691       12.4523055966       17.0453058816
  H        -1.1720906841       13.6213115007       17.5152170653
  H        -3.5934457296       13.2022170475       14.7726884242
  H        -2.8935592524       14.6572338012       14.3892712921
  H        -1.8350722916       13.3508817183       14.8752979041
  C        -1.9047084783       12.7660385047       19.9745835499
  H        -3.7095916341       12.8953592817       19.0235809909
  H        -2.7675565861       14.4868355123       19.2572244629
  C        -2.3307779647       13.1175279717       21.3412777531
  H        -2.1292405064       11.7877020277       19.6932933923
  H        -0.8408364175       12.7937172704       19.5580686461
  C        -1.2226209958       12.7261137503       22.5278566035
  H        -3.1724818450       12.4121018141       21.5725741109
  H        -2.8705010619       14.0196141005       21.5104452923
  C        -0.0124440532       13.5959566977       22.6690383092
  H        -1.7297375257       12.7462275695       23.5213833773
  H        -0.8807613015       11.6661470365       22.4116772693
  C         1.1509435377       12.8709553659       23.4733501236
  H         0.4910703546       14.0097766101       21.6922812509
  H        -0.3632012239       14.5217002108       23.2223085007
  C         1.5510390356       11.5352382109       22.8409586622
  C         0.6916251695       12.2098059500       24.7553243068
  C         2.3922271458       13.8554407186       23.6177860326
  C         1.2927100305       10.4213336186       23.6315893901
  C         2.1063463932       11.1455408640       21.7185936003
  C         0.6877296126       10.8965176688       24.8242456420
  C         0.0965025396       12.9078128280       25.8234252483
  H         2.6617231149       14.4006990481       22.7212547484
  H         2.0890781216       14.4406138173       24.4966026345
  C         3.6552187427       13.0618299236       24.2664969990
  S         1.7881984247        8.8545436268       22.9743219362
  C         2.2329466614        9.7691794154       21.5772213017
  H         2.2383723834       12.0001470994       21.0036114757
  C         0.2852444790       10.3277315028       25.9978570188
  H         0.0640214580       14.0153335613       25.7339917070
  C        -0.3549591001       12.3282148410       26.9724398789
  H         3.8413987436       12.2396701222       23.6842724088
  H         3.3316650035       12.4798096286       25.1538031600
  C         4.8946824772       13.9738464673       24.3678444578
  C         2.6669969794        8.9884912529       20.3644831253
  C        -0.2271320514       10.9914471280       27.1233136482
  H         0.4818641264        9.2694462831       26.0531256805
  C        -0.8392216507       12.7985258016       28.1240112874
  H         5.5616886980       13.6615791356       25.1977952607
  H         4.4713310889       14.8715572830       24.7957153536
  C         5.6288693311       14.1785684599       23.0242572126
  C         2.3880674572        7.6775692591       20.0603178340
  C         3.1055312808        9.8551449801       19.1653862235
  C        -0.8384842158       10.2971908583       28.3696834537
  C        -1.2189555727       11.7122842973       28.8838574136
  S        -1.0202555604       14.3131720388       28.9461832914
  H         6.2076943369       15.1013421297       23.0545642196
  H         4.8283036886       14.4747127047       22.2448080687
  C         6.2401438633       12.9771532079       22.3369741046
  N         1.9881043966        6.7117405547       20.9634037690
  C         2.5392396058        7.0556782487       18.8568054446
  C         3.1967700832        9.2513069160       17.8768063791
  H         3.3567531524       11.0080115991       19.3414540691
  C         0.3404084632        9.4625555459       28.9741116311
  C        -2.1250146471        9.4780063875       27.9794628214
  C        -1.6058653395       12.1759041387       30.1467276856
  C        -1.6346138879       13.5835386775       30.3292079574
  H         6.5386257831       12.2124889011       23.1083538456
  H         5.5023940483       12.4329081739       21.6670841487
  C         7.3331117078       13.1976145854       21.3718344385
  S         1.8531215491        5.3096182027       20.1809012624
  N         2.4935123059        5.6947296978       18.8019127040
  C         2.8645890802        7.7721829965       17.6686258651
  H         3.6304833620        9.7894220854       17.0095017164
  H         0.6434262672        8.7125557816       28.1497310723
  H         0.0633847871        8.9271702451       29.8505286029
  C         1.5704498823       10.2067722610       29.2642971160
  H        -1.9818044950        8.4846283028       27.5859992177
  H        -2.5853010271        9.2196146282       28.8916633194
  C        -3.1503532647       10.2246723255       27.2028964864
  H        -1.9348645947       11.3172143398       30.9396712218
  C        -1.9240874300       14.3715240979       31.6234881337
  H         7.8339319377       12.3375516517       21.1706482956
  H         8.0287747618       13.9672875626       21.6245928427
  C         6.7810853045       13.7554517521       20.0794503733
  C         3.1222270569        7.1006488154       16.4385331667
  H         2.1494740045       10.3729363371       28.3905482243
  H         1.4590626856       11.1773166841       29.8587042567
  C         2.6656192764        9.2247842150       29.8693329242
  H        -2.6998086697       10.6566993932       26.3533274584
  H        -3.4375324677       11.1130651059       27.8751470961
  C        -4.3669695861        9.3642016331       26.8653370991
  C        -1.8866591611       15.7427021373       31.8630183000
  C        -2.2338993521       13.4934083148       32.8091871550
  H         6.0408096611       13.2399007270       19.5665345283
  H         6.4177931338       14.8040307257       20.2517625921
  C         7.8658374545       13.8723054991       19.0367769930
  H         2.9776958774        6.0348118085       16.4191263478
  C         3.5297929720        7.4034060320       15.1936977965
  H         2.8488866873        8.5684198827       29.0158875079
  H         2.2800013639        8.5723725837       30.6011207304
  C         3.8167700077        9.9781337709       30.4671271717
  H        -3.9276820469        8.4305054301       26.3590469042
  H        -4.7620329417        8.9891789511       27.8558762280
  C        -5.3070803498       10.1532086368       26.0428861897
  N        -1.6377523680       16.7048494133       30.8957778128
  C        -2.1799235063       16.2467581692       33.1097269939
  C        -2.3485612270       14.0361576590       34.0680880253
  H        -2.0686060260       12.4276015339       32.7513390903
  H         8.6036171264       14.5534142692       19.5629704782
  H         8.3012338580       12.9140044775       18.7277515537
  H         7.4639913551       14.3008703270       18.1004018616
  S         3.9114717985        8.9601709408       14.6676929380
  C         3.3384579355        6.3774970948       14.1735948784
  H         3.8515910079       11.0252597093       30.2360484584
  H         3.7554631416        9.8961497914       31.5049420610
  C         5.1508810621        9.2026017744       30.2109925007
  H        -4.9319203835       10.5665902665       25.1406656530
  H        -5.7635264869       10.9905494331       26.6245415302
  C        -6.4680223215        9.2287908729       25.6044200102
  S        -1.7251346131       18.1521703048       31.6000565269
  N        -2.2800202303       17.6151603234       33.0564531144
  C        -2.5088870193       15.4939977651       34.2660030453
  H        -2.4576052301       13.3766721381       34.9610948229
  C         3.8654362606        8.1327881593       13.0136404538
  N         3.6363322307        6.7869433517       12.9328426369
  O         2.9698405752        5.1683370755       14.4283852229
  H         5.9392225427        9.9096834948       30.6278333613
  H         5.2082985182        9.0110958305       29.1998731301
  C         5.1829640469        7.8269195444       30.8324280497
  H        -6.0602817909        8.5243980461       24.9130007184
  H        -6.7115298678        8.7316099341       26.5159604784
  C        -7.5711973854       10.0726220320       24.9925090101
  C        -2.6759564554       16.1479354176       35.4797304166
  S         4.0362671712        8.9888441867       11.4998504887
  C         3.4224221899        5.9812561748       11.6772384249
  H         5.7817986765        7.8206673787       31.8246186599
  H         4.1500335835        7.5364783567       31.0148865898
  C         5.9457382216        6.9154276956       30.0005929669
  H        -7.5950604579        9.6001349490       23.9658201377
  H        -7.3885137212       11.1128529914       25.0217829801
  C        -8.9248610662        9.9223229139       25.6886883505
  H        -2.5259712070       17.1809852678       35.4422930890
  C        -2.9827835687       15.7482766130       36.7455876346
  H         3.9953114210        6.4984793873       10.9431451521
  H         3.7213265799        4.9817185084       11.8090944725
  C         1.9017900390        5.9643767039       11.2726254907
  H         6.8233102591        7.5226948319       29.5806344922
  H         5.2747334110        6.4357221387       29.1568180520
  C         6.5240406158        5.7349002842       30.7595127542
  H        -9.6650600801       10.4181564748       25.0010489180
  H        -9.3160596472        8.8809781760       25.7997128061
  C        -9.0512660090       10.4994285502       27.0079440921
  S        -3.4258754827       14.2512108628       37.3338353414
  C        -3.2151689679       16.8311087228       37.7659318917
  H         1.4385982164        6.9972872524       10.9987031017
  H         2.0685653315        5.4537609248       10.2888888944
  H         1.1679299989        5.3458641842       11.8357225266
  H         5.7299241481        5.2228646793       31.1748699795
  H         7.0917304613        6.0727579050       31.5934507842
  H         7.1457981522        5.0891760870       30.1664854831
  H        -8.1110415558       10.8347343885       27.5015960405
  H        -9.6296882983        9.9070674030       27.7426570314
  H        -9.4453422208       11.4940945801       26.9449056973
  C        -3.5351197454       14.9840123224       38.8821342922
  N        -3.5515905077       16.3286670981       38.8888435168
  O        -2.8973989172       17.9936073612       37.5466968711
  S        -4.2336788802       14.1478633952       40.2489645857
  C        -3.5106267289       17.2488867595       40.0914368858
  H        -3.7836834142       18.2345529828       39.8118245422
  H        -4.1932744292       16.8923138021       40.8165899976
  C        -2.1602312715       17.3072407936       40.6895863393
  H        -1.5355484469       18.0390641477       40.2401010552
  H        -2.3709288872       17.5860332849       41.7189856594
  H        -1.5444447040       16.4350297342       40.6358664010
  H         7.5609869087       11.0220589133        3.1255104257
  C         8.2284215686       10.2735954346        3.3060992828
  H         7.7350317840        9.3989910294        3.4472797293
  C         8.9474065433       10.6208928151        4.5288794951
  C         9.0294637515       10.0374469924        2.0894529455
  C         7.9925419879       10.8521277336        5.7861293069
  H         9.5371979927        9.6945503422        4.8468290231
  H         9.7343433522       11.3694492780        4.4340292956
  H         8.5072583460        9.8572366272        1.1470463216
  H         9.7777166552        9.2787820881        2.2500682490
  H         9.6713398221       10.9548367925        1.8620216799
  C         7.3328024449        9.4977035781        6.3135542803
  H         8.5065385135       11.3747368877        6.6197767733
  H         7.3867716246       11.6937515279        5.5339791879
  C         6.5203852161        9.5187531039        7.6810220710
  H         8.0866025916        8.7654270204        6.5474027750
  H         6.4477469509        9.2555531912        5.6850182198
  C         5.1848278638       10.3585757741        7.6946414708
  H         7.2159202531        9.8731646252        8.4979980078
  H         6.3125346817        8.4244443640        8.0463705223
  C         3.9943768444        9.7137892326        7.1410688476
  H         4.8319914469       10.5175810292        8.7248864764
  H         5.5556543821       11.3021795640        7.2841112846
  C         2.7989114617       10.6961585231        6.9186542957
  H         3.6637284362        8.9376367776        7.9372142288
  H         4.2041631276        9.1638768706        6.1893056033
  C         3.0731479286       12.0730514911        6.2640339810
  C         2.2353168234       11.3451730345        8.1716010197
  C         1.4849543264       10.0159315593        6.3064309452
  C         2.8273181735       13.1447356350        7.0915065583
  C         3.5172800452       12.4803452368        5.0036653827
  C         2.3118558900       12.6472975453        8.2737136673
  C         1.8603562837       10.7003288216        9.3840194846
  H         1.7544859514        9.5766456874        5.4558321286
  H         1.2381565671        9.2159887882        6.9718736043
  C         0.3447154920       10.9872540990        6.0195130381
  S         3.2555193864       14.6702124724        6.3598475744
  C         3.6434212535       13.8407806216        4.8745914098
  H         3.5375770765       11.7818785228        4.1935739243
  C         2.0067273851       13.1564131914        9.5000098722
  H         1.8518255992        9.6217969523        9.3405407914
  C         1.4964447182       11.3148911874       10.5560980634
  H         0.6416419850       11.9764573651        5.6197941374
  H        -0.1675213105       11.1594826106        6.9747583148
  C        -0.7551133949       10.2777378413        5.1399026290
  C         4.0730416040       14.5692013778        3.5845444931
  C         1.6295254032       12.5977495203       10.6922252498
  H         2.0302712360       14.2772418076        9.5599800417
  C         1.0948208086       10.9184315676       11.8111271499
  H        -1.8814280083       10.6818948090        5.1259113842
  H        -0.8043858537        9.2909437302        5.5889629264
  C        -0.3679542705       10.3065158815        3.7091361674
  C         4.2184834467       15.8394827481        3.3567330902
  C         4.5445423627       13.6887222783        2.4751163131
  C         1.3230982205       13.2818747179       11.9857080018
  C         1.0398039592       11.9676067565       12.6638785116
  S         0.8565192277        9.3826051589       12.5769511148
  H         0.4589317132        9.6455506377        3.5987898339
  H         0.0047091221       11.3288798942        3.4423991154
  C        -1.3845403434        9.8041437342        2.8260532135
  N         3.8213838332       16.8298308593        4.3404760475
  C         4.5115615441       16.3935064752        2.1556719151
  C         4.9692428724       14.2105949722        1.2821192579
  H         4.5060710929       12.6176835315        2.6113185828
  C         0.0810026421       14.2738138472       11.9112119031
  C         2.5344779162       14.0160859443       12.4791370419
  C         0.6214523533       11.6234372109       13.9660004274
  C         0.5067534965       10.2372005295       14.0125833130
  H        -1.9580154239        8.9477738878        3.3709141883
  H        -2.1801551240       10.5545411476        2.6670294653
  C        -0.9035273321        9.2252422251        1.4593189588
  S         4.2122947830       18.2973889764        3.6138941802
  N         4.5289229202       17.7268762815        2.1711358924
  C         4.8412653045       15.6419718093        0.9793408446
  H         5.1410009613       13.6313051367        0.4307899001
  H         0.3600387014       14.9743583598       11.2390950404
  H         0.0735546091       14.9094740831       12.8102473238
  C        -1.2582503844       13.4738124779       11.6181836462
  H         3.1617011597       14.5606753135       11.6862799052
  H         2.2848522082       14.8155734580       13.2173765058
  C         3.5878722917       13.1354794812       13.2071105872
  H         0.5250787585       12.4346942596       14.7533468113
  C         0.0821452498        9.4672225349       15.2800811922
  H        -0.5448124704        8.1719377065        1.5965462255
  H        -0.0405265077        9.7300720569        1.2544894709
  C        -1.7766352370        9.5472232103        0.2579323854
  C         5.1313872682       16.2338896324       -0.2619133152
  H        -0.9768605780       12.6383558610       10.9506463416
  H        -1.7191995681       13.0525036713       12.4334156754
  C        -2.2223067141       14.3937951365       10.8107530728
  H         3.8651290307       12.4693181954       12.3750045457
  H         3.1307650372       12.5881078433       13.9948627703
  C         4.7389060262       14.0323835626       13.7653786051
  C        -0.0602113972        8.0726446271       15.4469100996
  C        -0.0572300701       10.1714639143       16.6120094516
  H        -2.7743804046        8.9976663353        0.2925632882
  H        -2.2250761018       10.5556032827        0.4413703331
  C        -0.9249682704        9.5460599982       -1.0747705471
  H         5.3302790458       17.2540990787       -0.3111729365
  C         5.3592247153       15.7199780077       -1.5142327082
  H        -1.8133000516       14.9068075151        9.9738987651
  H        -2.6652658181       15.1027027111       11.4952336492
  C        -3.2946346065       13.4784740418       10.2725723616
  H         5.0642433766       14.6211670427       12.9000651121
  H         4.4507102189       14.7759188293       14.5877647706
  C         5.8828521921       13.1875808319       14.2318017230
  N         0.2016376138        7.2195407898       14.3800605236
  C        -0.3120728032        7.3994434105       16.6251631873
  C        -0.3386036594        9.4945934241       17.8187656704
  H        -0.0446365361       11.1992350668       16.7098602089
  H        -1.2051766085        8.5856966274       -1.4388998358
  H         0.1235150847        9.6838215109       -1.0184369178
  H        -1.2874425736       10.3365490882       -1.6992540710
  S         5.5210694196       13.9966593527       -1.9588011869
  C         5.4566519861       16.6473063925       -2.6340340041
  H        -2.7686124377       12.9413723838        9.5283128885
  H        -3.5138108886       12.7770911383       11.0128049168
  C        -4.4610096031       14.2085277680        9.7986325287
  H         5.8804949397       12.1622317448       13.7396512670
  H         5.7477817198       13.0331467751       15.2544891977
  C         7.2248813473       13.8072367160       14.0359808237
  S        -0.2510186251        5.7513809030       14.8328986817
  N        -0.5952430618        6.0570160471       16.3615090860
  C        -0.4400364599        8.0646241048       17.8379011133
  H        -0.3833424412       10.1122807420       18.6547752497
  C         5.6520610056       14.7582637977       -3.5989266525
  N         5.7774390089       16.0313564064       -3.6861065160
  O         5.5249669311       17.8788402734       -2.4833145351
  H        -4.6777120879       14.7893751661       10.7467158313
  H        -4.0696533535       14.7411896272        8.9204515080
  C        -5.7136687670       13.2484501128        9.5170110515
  H         7.8211459047       12.9727610975       14.4044916035
  H         7.5685356984       13.8329201085       12.9630870750
  C         7.5628266484       15.0842261075       14.7747617274
  C        -0.8080280686        7.2847640873       18.9775945057
  S         6.2641611686       13.8447073695       -4.8560635311
  C         6.0413143138       16.9002226269       -4.9408190848
  H        -5.3565050134       12.5832874462        8.7350437362
  H        -5.8058545723       12.5285872384       10.3184515739
  C        -6.9836857275       13.8938614035        9.1295419110
  H         8.5044988749       15.1080672032       15.1879609139
  H         6.8477199967       15.2182519895       15.5865970842
  C         7.1521798101       16.3201626281       14.0150872097
  H        -0.8852716085        6.2559755625       18.8628169514
  C        -1.3328455677        7.5863507657       20.1968863517
  H         6.7373403753       16.2462942061       -5.4709067969
  H         6.2522094483       17.8706287279       -4.7108976474
  C         4.7255983015       16.9958624582       -5.7529203668
  H        -7.4258869966       13.4536167757        8.3480883934
  H        -6.6713630829       14.9726606263        8.9307739414
  C        -8.1159842232       13.7253566719       10.2405827332
  H         7.1476961404       16.2307635801       12.8700736867
  H         6.2282948401       16.5334522940       14.3432719471
  C         7.9764245958       17.4477458682       14.5927192070
  S        -1.7247407617        9.1674341073       20.8943996664
  C        -1.5317193033        6.4286980274       21.0578653131
  H         4.1301879806       16.1969421854       -5.4363557364
  H         4.6782490628       16.8285834572       -6.8551158621
  H         4.1098066989       17.9252122067       -5.4651027504
  H        -7.8633786343       14.5248646181       10.9800229184
  H        -9.1259318357       13.7940562466        9.8105994528
  H        -8.1115122385       12.7201999072       10.6140430487
  H         8.8239881168       17.2011365263       15.2062774878
  H         8.3057961562       18.0122415987       13.7595138509
  H         7.2995039070       18.0525962362       15.1948870300
  C        -2.0381021608        8.2423552265       22.3845858911
  N        -1.9200512698        6.9060015483       22.2684137897
  O        -1.3022578599        5.2194990163       20.7875009417
  S        -2.0174693172        8.8920456332       23.9334179407
  C        -2.0063035195        5.9645376738       23.3905484485
  H        -2.3789881725        4.9808786869       23.0854105460
  H        -2.8258335857        6.3972791105       23.9359207025
  C        -0.7232777656        5.8007666598       24.2478787951
  H        -0.6788886891        4.9878759110       24.9696894966
  H        -0.2619536372        6.7362846539       24.6360932801
  H         0.0027186466        5.5911126112       23.6115500178
