352
i =
  H        -3.4779937412       14.7803540726       16.5333769089
  C        -3.2691833517       13.7739554491       16.6006616538
  H        -4.1294112772       13.3390879344       17.0737355869
  C        -2.0816555810       13.6476236616       17.5855108368
  C        -3.0140615455       13.1257013681       15.2365269192
  C        -2.3821970599       14.1548708486       18.9766177311
  H        -1.9735012324       12.5939863085       17.7152495111
  H        -1.1256519064       14.0461209346       17.3061806480
  H        -3.0598918695       13.9241914245       14.4573766696
  H        -1.9792396144       12.7619853866       15.1006748142
  H        -3.6989031305       12.3375617546       15.1212105686
  C        -2.4127302225       13.0266769446       19.9760506916
  H        -3.2767758587       14.7747543980       19.0304430005
  H        -1.5730184929       14.8709965775       19.2817786597
  C        -2.6560369828       13.5028169795       21.4190201618
  H        -3.0628340582       12.1650684606       19.7038503117
  H        -1.4081380687       12.6393749971       19.9266067402
  C        -1.5799805113       13.0129366206       22.3729463365
  H        -3.6057943690       13.1362248541       21.6899381301
  H        -2.8145690778       14.6146493381       21.3343749901
  C        -0.3708518340       13.8224951089       22.5142467177
  H        -2.0023569068       12.7093819827       23.3266146512
  H        -1.3379630524       12.0640526241       21.8560112289
  C         0.7777416818       13.2354663350       23.2115330507
  H        -0.0717411122       14.0627319585       21.5138236205
  H        -0.5471151859       14.6927266406       23.1390669623
  C         1.1392600291       11.9822557489       22.5368083668
  C         0.4514630181       12.5345472171       24.4585417165
  C         2.0787806948       14.1155821078       23.3815805246
  C         1.0113974983       10.8925689404       23.3628956634
  C         1.7774647619       11.6573233781       21.3037824455
  C         0.4453386240       11.2208112570       24.5546256852
  C         0.0555001948       13.1648072124       25.6469407941
  H         2.1491909170       14.5989222082       22.3645029477
  H         1.8836957256       14.8524711395       24.1060192804
  C         3.4110209362       13.4068422198       23.9491220921
  S         1.4442522169        9.4314661548       22.6059859792
  C         2.0085563195       10.3060335214       21.2566992733
  H         2.1765299762       12.4261974539       20.6614848954
  C         0.0210255599       10.6074656293       25.6706923958
  H        -0.0917425618       14.1843905545       25.6125950117
  C        -0.2106030675       12.5862313405       26.8250700631
  H         3.5163735224       12.3304964680       23.7874706055
  H         3.3132581134       13.2947864860       25.0382885238
  C         4.6973396220       14.1933463712       23.7683400193
  C         2.4568095189        9.6202043683       20.0662032992
  C        -0.3400172493       11.2177253585       26.9160334254
  H         0.1081378876        9.5110130794       25.5218464686
  C        -0.6014564298       13.0214893426       28.0532952262
  H         5.4338166504       13.8384586143       24.4743066264
  H         4.5985828439       15.2563000513       24.1167701318
  C         5.1266531091       14.2503418879       22.3395712470
  C         2.5238439301        8.2188330056       19.8244744923
  C         2.8056889466       10.4301306030       18.8236025266
  C        -0.6697077601       10.5698576211       28.2070658423
  C        -0.9265382379       11.9229011458       28.8981498909
  S        -0.8404734879       14.5333502072       28.7849339694
  H         5.9556209865       14.8966875155       22.3691930807
  H         4.3120610923       14.6432501639       21.7581985154
  C         5.5486636086       12.8576108864       21.8405011092
  N         2.1247059878        7.2865551595       20.8158913727
  C         2.7088686602        7.6180479901       18.6151840734
  C         2.8981713544        9.8377166223       17.5719950451
  H         2.6721763387       11.4938919411       18.7905201649
  C         0.5248779806        9.7459305570       28.8219887203
  C        -1.9896390495        9.7941286943       28.2366376491
  C        -1.4202667628       12.3678579342       30.1318020986
  C        -1.4213947301       13.7381540537       30.2092888020
  H         6.5400772744       12.5922231697       22.1853151847
  H         4.8021782452       12.1032961616       22.2084680798
  C         5.5123288483       12.7202290755       20.2509693578
  S         2.1009876217        5.8417561583       20.1443290971
  N         2.6953571504        6.2145425115       18.6405719833
  C         2.9493282485        8.3662637090       17.4063694257
  H         3.2607903754       10.4768545156       16.7945912470
  H         0.9195716878        9.1164197218       28.0546222141
  H         0.2466642894        9.1773532324       29.6779952179
  C         1.6628110003       10.5950685911       29.2716830146
  H        -1.8873808684        8.8422940098       27.6192984451
  H        -2.2280851412        9.4681594949       29.2481265777
  C        -3.0446389446       10.7127578801       27.6694930352
  H        -1.7445984876       11.5992946460       30.8619818976
  C        -1.7310281920       14.5245706606       31.4607395292
  H         4.6585498155       13.3056852011       19.8141788818
  H         5.1946515082       11.7550524994       19.9841697302
  C         6.9366000585       12.9590306419       19.7230610039
  C         3.2403356468        7.5353179451       16.2362417810
  H         2.1625349676       11.1861749397       28.4746741879
  H         1.2656064546       11.3912951931       29.9251652559
  C         2.5900451350        9.6378439143       30.0054814759
  H        -2.7402534624       11.2521587826       26.7621315024
  H        -3.2747316557       11.4525038315       28.4469189161
  C        -4.2372903280        9.7682122781       27.3618445209
  C        -1.6814405763       15.8525296043       31.6252887126
  C        -1.9688448344       13.7041250488       32.6989293436
  H         7.4666378335       13.8121382783       20.1473571693
  H         7.5705217654       12.0541560639       19.8471858403
  C         6.7981637545       13.1535803925       18.1567943865
  H         2.9759984755        6.5431280802       16.4177783148
  C         3.6933965266        7.8376124199       14.9984552086
  H         2.9769879212        8.8533544667       29.2633394299
  H         2.1676924965        9.1254669491       30.8732231426
  C         3.8498198336       10.4215436455       30.6345624941
  H        -3.9823751887        9.0896344786       26.5021040688
  H        -4.5081623135        9.1118789363       28.1745732351
  C        -5.4584029125       10.6070932142       26.8522393786
  N        -1.3104836524       16.7574462027       30.6941296293
  C        -1.9564636906       16.4827937701       32.8641319923
  C        -2.2408035388       14.2596843030       33.8941939694
  H        -1.9924712463       12.6438050818       32.6916545537
  H         6.2716540781       14.1022498139       18.0482429685
  H         7.7194277889       13.2339681195       17.6776571713
  H         6.1624405965       12.4197942523       17.7000220141
  S         4.2180313775        9.3871406119       14.4451595624
  C         3.7193208987        6.8100246406       13.9368058386
  H         4.0360574464       11.3853777318       30.2275134342
  H         3.6641537262       10.6868366508       31.6138857010
  C         5.1413932184        9.5662718134       30.6993698233
  H        -5.1708784182       11.3791893017       26.1771847200
  H        -5.9442236052       11.0841234647       27.7162440836
  C        -6.3782121194        9.6488992032       26.0599137775
  S        -1.3258876199       18.3030009683       31.2976628304
  N        -1.8157330123       17.8930769163       32.8025990242
  C        -2.3344092775       15.7730834716       34.0600771519
  H        -2.2790097836       13.6006188025       34.7661053902
  C         4.4168033800        8.6272020468       12.8479634633
  N         4.2203750382        7.2774203143       12.8154853070
  O         3.2690992299        5.6990565391       14.2071221209
  H         5.9468908639       10.0276286079       31.3156405205
  H         5.5465711598        9.5387224393       29.7041687899
  C         4.9588491807        8.0382134676       31.0876483412
  H        -5.6485323092        9.2457371612       25.3338125416
  H        -6.9300931545        8.9327991202       26.6527748987
  C        -7.4916869770       10.3805258614       25.1841128570
  C        -2.4950938383       16.5029957778       35.2503752753
  S         4.8728841185        9.4090077799       11.3716559732
  C         4.1004431865        6.5027278925       11.6120062352
  H         4.1679164765        7.8098563886       31.8504852835
  H         4.6820696720        7.6040781450       30.1095491524
  C         6.1646154057        7.2024561285       31.4917029617
  H        -7.1304754425       10.3904063640       24.2377873750
  H        -7.5233432629       11.3943425501       25.6215244678
  C        -8.9538262769        9.8476745281       25.1027083642
  H        -2.2799687647       17.5945564319       35.1960141575
  C        -2.8931030268       16.1089799386       36.4820943239
  H         4.7554799278        6.6303837252       10.7419659457
  H         4.4180339017        5.4755617879       11.9502934668
  C         2.6939055966        6.6258708943       11.0123991291
  H         5.6996532684        6.5379007270       32.1750261574
  H         6.8340635917        7.7897988442       32.0462658572
  C         6.9704680546        6.7207823330       30.3276236274
  H        -9.6811999248       10.4710221844       24.5364949749
  H        -8.8435586267        8.8719622807       24.6923648270
  C        -9.5343673825        9.5858688888       26.4729041514
  S        -3.3673579121       14.5832630685       36.9500138227
  C        -2.9985414223       17.1567120830       37.5061023200
  H         2.4963382091        5.8613679258       10.2479073080
  H         1.9096204298        6.4706793139       11.8046312413
  H         2.5422603654        7.5914345364       10.5432486176
  H         7.7770103308        6.0600731563       30.7496045202
  H         7.5540673418        7.5271305991       29.7436112755
  H         6.3043829858        6.1149802151       29.6149721169
  H        -9.0915096236        8.7451564712       26.9199143228
  H       -10.5782624840        9.3043090003       26.4045782818
  H        -9.3703498561       10.4470549726       27.0682530576
  C        -3.5727068001       15.2653709256       38.5478073858
  N        -3.6060130871       16.6476077720       38.5965799022
  O        -2.6926592233       18.3541046403       37.2378817899
  S        -4.3958814975       14.3562474526       39.7866589692
  C        -3.8826244063       17.5048268973       39.7811355536
  H        -4.3170865733       18.4233304639       39.4830481101
  H        -4.7305520439       17.0153542342       40.2962202766
  C        -2.7607932262       17.8838020015       40.7690620465
  H        -1.8271452712       18.2585625312       40.1969172456
  H        -3.0215747402       18.8026654584       41.3649036776
  H        -2.4286277251       17.1103842132       41.4869652213
  H         7.1494556538       10.2362194212        3.0066406361
  C         8.2026139277        9.8546051987        3.2139168830
  H         8.0288834752        8.8142763049        3.5388558403
  C         8.8148107893       10.5949059819        4.4051073275
  C         9.0087109877        9.9837757378        1.9559205249
  C         7.8363892453       10.7540650905        5.5962684033
  H         9.7292266931        9.9875983771        4.6528462264
  H         9.2001747541       11.6209501029        4.1213068576
  H         8.2349765562        9.8534165935        1.1680903727
  H         9.6351671009        9.1500308245        1.8643476569
  H         9.5809631567       10.8948567570        1.7975749782
  C         7.4567310634        9.3973557842        6.2513922466
  H         8.2374081437       11.5453867165        6.2458046177
  H         6.8563317329       11.1476957074        5.1831341498
  C         6.8759680376        9.6844329116        7.6346789404
  H         8.3161297872        8.7492343199        6.2355941754
  H         6.7460827808        8.9638295092        5.6259133565
  C         5.5359183551       10.4451651259        7.7536432504
  H         7.5601315337       10.2729299440        8.2149601156
  H         6.7919555396        8.7823488958        8.2152706304
  C         4.2738490406        9.8016975310        7.1798884621
  H         5.4580050524       10.7663997734        8.8747395523
  H         5.5784067178       11.3106700530        7.1772397248
  C         3.0104580017       10.6986146652        7.0995344869
  H         4.0690122124        8.9927150318        7.9389999071
  H         4.5243569524        9.3799323161        6.2417176211
  C         3.2771454563       12.0052901399        6.3496175986
  C         2.5880264302       11.4115185552        8.3099269386
  C         1.8232782823        9.8550959419        6.5083091495
  C         3.0843093829       13.1492288642        7.1134683086
  C         3.6255300578       12.3774161652        5.0616731921
  C         2.5323571427       12.7530832183        8.3680776165
  C         2.0778605854       10.8696400413        9.5184999620
  H         2.1620695198        9.5177263901        5.5739218740
  H         1.8000008660        8.9543222536        7.1521002787
  C         0.5025668147       10.6318183598        6.4022796633
  S         3.5241508219       14.6130935704        6.2667303215
  C         3.7965288742       13.7693447139        4.8117824410
  H         3.7536023555       11.6175193158        4.3341405118
  C         2.0704347461       13.3805223032        9.5057377040
  H         2.0991258460        9.7783846479        9.6348464501
  C         1.6555696616       11.4871439381       10.6639479672
  H         0.6425727399       11.7181810691        6.2630779295
  H         0.0866388875       10.4934238973        7.4132431723
  C        -0.3366336052       10.1376976505        5.3076061877
  C         4.3145858223       14.3887256255        3.5466847231
  C         1.6163951189       12.8073455201       10.6680193506
  H         2.0741714947       14.4401546719        9.4383516154
  C         1.1361912860       11.0465257779       11.8348219166
  H        -1.2628471057       10.6837438917        5.2146638201
  H        -0.4641530562        9.0463135237        5.5735873916
  C         0.1765668698       10.2389766079        3.8326874932
  C         4.3870208055       15.7288250395        3.2691954477
  C         4.6993188257       13.4577375082        2.4783318033
  C         1.1425677784       13.4454264332       11.9452273470
  C         0.8810322899       12.0962566178       12.6780093508
  S         1.0513311219        9.5439317342       12.6142775629
  H         0.9929591481        9.4873697606        3.6940490467
  H         0.5574743200       11.2079750964        3.6180318952
  C        -0.9410233185       10.0494534352        2.7529569040
  N         4.0687427710       16.8167294827        4.1214304196
  C         4.7115112204       16.1182115493        2.0498124446
  C         5.2527869375       13.8351950717        1.2452531017
  H         4.6765288526       12.4282356820        2.5940643286
  C        -0.1843326377       14.2596838803       11.7482123151
  C         2.1666291186       14.2643007498       12.7158382079
  C         0.3281024428       11.6682282301       13.8966103671
  C         0.3919107498       10.2761455225       14.0150337571
  H        -1.6171622977        9.1798194712        3.0852476543
  H        -1.6104892923       10.9747403226        2.6900028285
  C        -0.2351601201        9.7973310976        1.4361434262
  S         4.2378870254       18.2028402165        3.2633745140
  N         4.7291277429       17.4681433809        1.8296623900
  C         5.1233696177       15.2727131894        0.9500816565
  H         5.5328380641       13.1461657921        0.4725429233
  H         0.1134802691       15.0953016633       11.0763302688
  H        -0.4645395475       14.6233292150       12.7224769864
  C        -1.3782624201       13.5412142517       11.0934146404
  H         2.2870302259       15.3035653938       12.3081506072
  H         1.6601595245       14.3745079780       13.6628518020
  C         3.4611813457       13.6052917684       13.1876475239
  H         0.0936314502       12.4469207227       14.6182510888
  C         0.1293218080        9.4674255789       15.2568362621
  H         0.3733272640        8.9681142313        1.5933127846
  H         0.4108262286       10.6095675815        1.0737733987
  C        -1.2303141037        9.5412760217        0.2823390429
  C         5.4163537443       15.8930721392       -0.2898083391
  H        -1.1413431974       13.1698534624       10.1369622974
  H        -1.7492536328       12.6951650843       11.6778977112
  C        -2.4460991453       14.5970326057       10.8739939180
  H         4.1161433961       13.3541210642       12.2882486010
  H         3.2018452441       12.6269249039       13.6814719913
  C         4.1153138158       14.4033080312       14.3407924259
  C         0.0552351399        8.0634192793       15.4258321717
  C        -0.2392885497       10.2217035742       16.4746835272
  H        -1.7812029137        8.6329598553        0.4685540229
  H        -2.0277904840       10.1887200327        0.3693647808
  C        -0.5847732145        9.7460695883       -1.0722719219
  H         5.5945783808       16.9577353490       -0.2668947774
  C         5.6677310457       15.4117130083       -1.5523283793
  H        -1.9744014917       15.5412497120       10.5189909040
  H        -2.9763158701       14.7788634860       11.8591630816
  C        -3.6158713955       14.1821157712        9.9852730539
  H         4.3686925161       15.3456318150       13.8682190739
  H         3.5035802318       14.6559594089       15.2184594183
  C         5.3675376268       13.7662495531       14.8805360844
  N         0.4293263891        7.1858162367       14.4555922069
  C        -0.2162164301        7.4105920653       16.6455856350
  C        -0.6178039482        9.6026333147       17.6196642203
  H        -0.1997700879       11.3038188001       16.5962139366
  H        -0.8911800283        9.2307610348       -1.9107567122
  H         0.4025294595        9.4079305381       -0.9895653274
  H        -0.4703544572       10.7600843177       -1.2171320029
  S         6.0227755608       13.8196366795       -2.0253190076
  C         5.8228552072       16.4210926400       -2.6396371774
  H        -3.8455218118       14.9677052722        9.2909365958
  H        -3.2733672898       13.3627221055        9.3467173143
  C        -4.8825324499       13.7307310650       10.7674140493
  H         5.1686964823       12.7583454392       14.9558627516
  H         5.5612225668       14.2165748185       15.8488749961
  C         6.6652379722       13.9959481286       14.0056757242
  S         0.4750981381        5.6521024952       15.1597219274
  N        -0.0722949073        6.0369352853       16.6182022336
  C        -0.6022186894        8.1340366753       17.7525580848
  H        -0.9100316222       10.1288532896       18.5073753356
  C         6.0411189828       14.4613994121       -3.6528400320
  N         6.0734118796       15.7988757421       -3.7613382437
  O         5.5172989545       17.6443627669       -2.4808947860
  H        -4.5635809775       13.3351635389       11.7195672841
  H        -5.3435868475       14.6680933083       10.9746000210
  C        -5.8524935517       12.7877091650       10.0093192719
  H         7.5102412159       13.5255996188       14.4582489941
  H         6.5111455729       13.5817948039       12.9536356047
  C         7.1036866161       15.4792814536       13.7669629062
  C        -0.9160889877        7.4586680354       18.9808634823
  S         6.3668012628       13.5433541937       -5.0767270875
  C         6.0910214566       16.4982699874       -4.9906341801
  H        -5.3308331053       12.0114559277        9.4660738079
  H        -6.4619395023       12.2464171476       10.7251346978
  C        -6.7866758077       13.6246444249        9.0979415583
  H         6.3508527482       15.9292051630       13.1140874007
  H         8.1151872698       15.4281134097       13.2812344329
  C         7.4572616272       16.3373253593       14.9913840526
  H        -1.0293229693        6.4666355881       18.7833409213
  C        -1.4335535782        7.8427574024       20.2136667012
  H         6.8732519253       16.1555157722       -5.7223771721
  H         6.5104782178       17.5232308464       -4.7841731645
  C         4.6448268466       16.6140626966       -5.4558386409
  H        -7.0749408036       12.9544155953        8.2394294587
  H        -6.3602409336       14.4993179308        8.6144490145
  C        -8.0141414301       14.1337594522        9.8648002504
  H         6.5109028696       16.4154315383       15.5050626733
  H         8.1562534229       15.7238980956       15.5333541808
  C         7.8646106302       17.7650785128       14.5099297785
  S        -1.7602683593        9.4280728029       20.7723259410
  C        -1.6386199792        6.8030901231       21.1410061866
  H         3.9986252109       17.1484695223       -4.7931871509
  H         4.2684284123       15.6313534646       -5.5755624532
  H         4.6943058073       17.0781089220       -6.4827604930
  H        -8.5947293164       13.3314028380       10.4210082915
  H        -7.8613828715       14.8914106357       10.5960783862
  H        -8.6784889443       14.6502677194        9.1349742579
  H         7.0279769843       18.4647865803       14.7365291274
  H         8.8861691767       18.0417124116       14.8286425782
  H         7.9334714904       17.6681234118       13.4325275095
  C        -2.2795806283        8.6829040986       22.3073700372
  N        -2.1055072781        7.3096858808       22.2829340297
  O        -1.2882295740        5.6763934846       20.9688793527
  S        -2.8510324697        9.4647730664       23.7686306284
  C        -2.1749310658        6.4298597019       23.4809622680
  H        -2.3125091580        5.3974427235       23.1467104592
  H        -3.0428306595        6.8388129406       24.0279946369
  C        -0.7882000568        6.4450353371       24.1803376334
  H         0.1424462325        6.6611025876       23.5499087290
  H        -0.6258930066        5.3675803874       24.5140043660
  H        -0.7996753931        7.0374627714       25.1110790504
