352
i =
  H        -3.2659533981       14.7390943568       16.1450314456
  C        -2.9082588669       13.7411596975       16.2023432983
  H        -3.8417873167       13.2661911775       16.5263809231
  C        -1.8232473247       13.4588028515       17.2902288627
  C        -2.4116619388       13.3581381202       14.7926750489
  C        -2.3966189049       13.7001080443       18.6657649492
  H        -1.7480436766       12.3691659171       17.2948385993
  H        -0.8511155970       13.9007565046       17.0147968142
  H        -3.1685606640       13.4048495249       14.0980163560
  H        -1.6816178983       14.0876310991       14.4312164726
  H        -1.9483555016       12.3962549678       14.7236446980
  C        -1.3855284257       13.4582879511       19.7467013422
  H        -3.2529092690       13.0494606038       18.8106240995
  H        -2.8387125990       14.7353943376       18.7411705221
  C        -2.1127323034       13.5634091557       21.0638631721
  H        -0.9149688832       12.4726746238       19.5646677520
  H        -0.5679252156       14.2450596982       19.5667332884
  C        -1.2831243125       13.0748110524       22.3572127718
  H        -2.9312340855       12.8807857034       20.9226163558
  H        -2.6333784425       14.5584037890       21.2261432838
  C        -0.0211481960       13.9445816862       22.6484498981
  H        -1.8657791794       12.9877406444       23.2651073290
  H        -0.9045491390       12.1524493384       22.0874724096
  C         1.1486945827       13.1356976350       23.3033721939
  H         0.3799509045       14.3671490255       21.7512654142
  H        -0.1996496711       14.6764636775       23.4043400713
  C         1.4656291476       11.8083807802       22.6118017440
  C         0.7299737019       12.4461782121       24.5685117715
  C         2.4167848879       14.0687217702       23.5777329527
  C         1.1621491051       10.6983814202       23.3961706657
  C         1.8267772073       11.4218968245       21.3023089141
  C         0.7253093057       11.0974209276       24.6577123743
  C         0.2439124364       13.0780796831       25.6978210260
  H         2.5905145565       14.5423668889       22.5781540151
  H         2.2230198971       14.9051660346       24.3050387997
  C         3.7381748891       13.3525159857       24.0227110413
  S         1.4948273326        9.1570316828       22.5678106519
  C         1.8234192738       10.0626711600       21.1327187941
  H         1.9553383601       12.2068763145       20.5111123595
  C         0.1867649756       10.5101964190       25.7781491167
  H         0.1568213482       14.1502680410       25.6644242090
  C        -0.1874631102       12.4822743788       26.8771049301
  H         3.8778852416       12.4710707965       23.3773491777
  H         3.7753585571       12.9980997987       25.0631240662
  C         5.0860220221       14.0880035512       23.8255327828
  C         2.2820078130        9.3767017269       19.8696229533
  C        -0.1745695118       11.1571595482       26.9622916796
  H         0.0998214174        9.3723284759       25.6671736160
  C        -0.5559038183       12.9018660714       28.0859163409
  H         5.9123189711       13.4677697201       24.2113472251
  H         5.1344277897       15.0920743686       24.3828297518
  C         5.4114249996       14.3435386531       22.2926129282
  C         2.2408007621        7.9945992719       19.5889432708
  C         2.8021732426       10.2722056417       18.7813812235
  C        -0.6703958559       10.4569444937       28.1423908531
  C        -0.8146537389       11.8105942704       28.8818110583
  S        -0.7136354702       14.4059468362       28.9469802707
  H         6.2057164997       15.0932227670       22.2961270428
  H         4.6671637743       14.7489374346       21.6494273769
  C         6.0454520277       13.1613355362       21.5984325660
  N         1.8900449009        6.9832292632       20.4039251754
  C         2.5914807445        7.4212191981       18.3139484664
  C         3.2253628764        9.7091397021       17.5663292401
  H         2.8049869362       11.3342491638       18.9094922221
  C         0.5144293470        9.6243186731       28.6315647695
  C        -2.0004011341        9.6151447541       27.8112538079
  C        -1.3061987471       12.2162158256       30.1981249204
  C        -1.2311425007       13.5789486451       30.3293993664
  H         7.1510621437       13.1823975953       21.7070230930
  H         5.6409790488       12.2972876579       22.0106518276
  C         5.7692328862       13.0966582370       20.0330288117
  S         2.1504492115        5.5358538325       19.7325719737
  N         2.7032917589        6.0633489846       18.3198897519
  C         3.0695258206        8.2840649315       17.1969215189
  H         3.5934952295       10.4615763315       16.9043583418
  H         0.6559750303        8.8721893566       27.8662202890
  H         0.2293147927        8.9846679767       29.4804222695
  C         1.8180564754       10.3913950454       29.0769785465
  H        -1.6833864307        8.7824998346       27.1673282143
  H        -2.2128930287        9.0784236455       28.7770538281
  C        -3.2040515759       10.5038567425       27.4737777582
  H        -1.6852704522       11.4623480159       30.8447780541
  C        -1.4573019517       14.3147678630       31.5628532030
  H         4.7315674149       13.2974199441       19.8389660810
  H         5.8695897086       12.0953197269       19.6925004923
  C         6.7479692789       13.9180393210       19.1330147024
  C         3.3395089250        7.6112467136       15.9818180543
  H         2.1725139580       11.0979019601       28.3653555076
  H         1.6549057404       11.0733467203       29.8437116865
  C         2.9657913865        9.4407191263       29.4173707987
  H        -2.9526700559       11.2809887322       26.7497322155
  H        -3.5253469630       11.0423511671       28.3622194083
  C        -4.3978240483        9.7274849280       26.8171834900
  C        -1.6117466770       15.7077752299       31.6790165228
  C        -1.6311990309       13.5338430504       32.8611432392
  H         6.3833293560       14.8686408091       18.7249896763
  H         7.5812582711       14.1244335919       19.7974309466
  C         7.1427376056       13.0743819588       17.9088137210
  H         3.1493491011        6.5632734729       15.9779305422
  C         3.7155992446        8.0569153283       14.7660040108
  H         2.9544957244        8.8693764825       28.5040836916
  H         2.7937387442        8.7833656855       30.1895315685
  C         4.3656622891        9.9001286857       29.8080384471
  H        -4.0773708898        9.7469095353       25.7758699280
  H        -4.5470399684        8.6755977999       27.2412309989
  C        -5.7784271344       10.4096027114       27.0724035753
  N        -1.2993749395       16.6915478392       30.6862319045
  C        -1.9289865434       16.3527604600       32.8405851562
  C        -1.9367260279       14.1953287674       34.0175477059
  H        -1.5069939511       12.4489177552       32.8064861265
  H         7.4150879946       13.7762717810       17.0729437310
  H         7.9732188192       12.3838014519       18.0659276458
  H         6.3348222063       12.5306750793       17.4838511559
  S         4.0802582847        9.6269206816       14.2580460647
  C         3.8941151506        7.0137415605       13.7074858837
  H         4.4498414998       10.7850478146       29.1597785624
  H         4.3640085749       10.2507844546       30.8528023871
  C         5.5288633747        8.8876747980       29.5758284624
  H        -5.6783547927       11.3171955399       27.7285639695
  H        -6.3485251815        9.6790387187       27.5595033609
  C        -6.5305905012       10.8966111794       25.7703356956
  S        -1.4138885448       18.1641686449       31.3050092671
  N        -1.9490032027       17.6713004998       32.7310201836
  C        -2.1634525943       15.6720179102       34.0390211736
  H        -2.0135819801       13.6106424535       34.8869341084
  C         4.3701620660        8.8840470671       12.5876934319
  N         4.3710221938        7.5557891002       12.5717592841
  O         3.6811604010        5.7777156160       13.8790684666
  H         6.3795639844        9.4336656677       29.2132914360
  H         5.3830145772        8.2130213678       28.7216556769
  C         5.9204303592        8.0629249847       30.7217721244
  H        -5.9520237387       11.7783607795       25.3563291100
  H        -6.5201220240       10.1363408224       24.9607493832
  C        -7.9973826697       11.2512740238       26.0335563431
  C        -2.4720667971       16.4612015308       35.1688895107
  S         4.8666907136        9.8352229871       11.1501988520
  C         4.3701680721        6.8396111357       11.3126814454
  H         7.0071912390        8.0145184989       30.6515417425
  H         5.8233968012        8.5741082646       31.6638313599
  C         5.2031061647        6.7335384518       30.7726746659
  H        -8.2840400929       12.2924405869       25.7094116139
  H        -8.1848105010       11.2016543303       27.1373075879
  C        -8.8753412183       10.2578249461       25.2909949561
  H        -2.0555170946       17.4230849489       35.1922884618
  C        -2.9583871600       16.0984875705       36.3989923424
  H         5.0063983734        7.3503692583       10.5689102982
  H         4.7757855328        5.8454829324       11.4348218006
  C         2.9606771136        6.8246060091       10.6854201016
  H         4.8411554195        6.4696015279       29.7495559020
  H         4.3258697035        6.7658177020       31.4792991282
  C         6.2503345149        5.6502301300       31.2074553881
  H        -9.0042917600       10.3682778551       24.2208960649
  H        -8.4029551975        9.2465306296       25.4612738513
  C       -10.1914251990       10.1351215018       25.8838820617
  S        -3.6223381754       14.5350721538       36.8170282457
  C        -3.0296641756       17.1461976267       37.4076044938
  H         2.8817955022        7.8255249818       10.2349670159
  H         2.9421603935        6.0919923576        9.9418712834
  H         2.0616320113        6.6966817916       11.3101096225
  H         7.0201345345        5.9963538998       31.9527352102
  H         6.7822965083        5.2434221916       30.3799297536
  H         5.6327336295        4.9480047947       31.6532619872
  H       -10.5210678194       11.1085456548       26.3246784788
  H       -10.1547521504        9.5012133615       26.7575128535
  H       -10.9614316006        9.8135107025       25.1865669509
  C        -4.0502130001       15.3330760802       38.3200051022
  N        -3.7913294501       16.6948797734       38.4209747007
  O        -2.5868722238       18.3448776190       37.2342525731
  S        -4.9177303628       14.5596993435       39.5710524246
  C        -3.8643051247       17.4055775434       39.6811381021
  H        -3.9360113068       18.4554111037       39.5183871029
  H        -4.7219518037       17.1668873037       40.3988700582
  C        -2.5825581168       17.2732094181       40.3883070133
  H        -2.1912364888       16.3001035783       40.3130934368
  H        -1.8335589123       17.9420736820       39.9797499072
  H        -2.7747093480       17.4327784485       41.3846800158
  H         7.1993113676       11.1975899404        2.6262219936
  C         7.7987033158       10.3528083125        2.9631319974
  H         7.0061354421        9.5801036664        3.0691530998
  C         8.6228765681       10.6240487436        4.2364042835
  C         8.6851550135        9.9597358917        1.7738459901
  C         7.7584088470       10.8807369384        5.4652598566
  H         9.2370793413        9.7503247669        4.4139700415
  H         9.2507496553       11.5377551333        4.2357980441
  H         9.2532116908       10.7845982547        1.3510626457
  H         8.0857893831        9.4683836122        1.0460122430
  H         9.2764950856        9.1074693001        1.9637402646
  C         7.2877091418        9.5772894440        6.1582288529
  H         8.4610301367       11.4236508549        6.1105374621
  H         6.9969623339       11.5084415629        5.0903370570
  C         6.5726513644        9.8616563655        7.4939261982
  H         8.1186665876        8.9854349462        6.4439955414
  H         6.7762256640        8.9461338368        5.3942313815
  C         5.3473969860       10.7753120353        7.3928936013
  H         7.1999546452       10.4293834371        8.2058040336
  H         6.2934255351        8.9264706335        7.9530415881
  C         4.1888499085        9.9499351215        6.8729381782
  H         5.0325559554       11.0864688278        8.3243740945
  H         5.6306859421       11.6481045732        6.8862214636
  C         2.8741890296       10.8371054146        6.7868917576
  H         4.1237572166        9.1608326005        7.6275842010
  H         4.4060323921        9.5086975167        5.9111290744
  C         3.2613325304       12.1509311633        6.1678222474
  C         2.3992079166       11.5135914146        8.0590766934
  C         1.6274770604       10.1564560596        6.0397374485
  C         2.9543532149       13.2464731416        6.9495138558
  C         3.6876148303       12.5731889111        4.8926843042
  C         2.4495215660       12.8141571274        8.1891046104
  C         1.9264986743       10.8523726038        9.1999217960
  H         2.0289431918        9.8391644876        5.1279295887
  H         1.1802625317        9.2596401571        6.5182788540
  C         0.4420206623       11.1469408079        5.7838925587
  S         3.2597268121       14.7635231450        6.1818430410
  C         3.8235519479       13.9645789480        4.7852685349
  H         3.9329116391       11.8083892178        4.1511049802
  C         2.0492983751       13.3797908067        9.3462999111
  H         1.7755358092        9.8207133554        9.1261107953
  C         1.5587417306       11.3932587571       10.3694239203
  H         0.7172624871       12.2256608377        5.5104077622
  H        -0.0504705237       11.2273119573        6.7528886086
  C        -0.5370146072       10.7700675733        4.7479463180
  C         4.1576912721       14.7185658002        3.5237641519
  C         1.5909020650       12.7658278870       10.4815869093
  H         2.0129453453       14.4613380429        9.2718266219
  C         1.1507874182       10.9495170612       11.6537313476
  H        -1.3825942877       11.4499610070        4.7826436244
  H        -0.9236685508        9.8054480172        5.0177351757
  C         0.0758254679       10.8915972918        3.3846185508
  C         4.0512060990       16.1387626234        3.3279894057
  C         4.5106809769       13.9652158121        2.2955715301
  C         1.0800449480       13.4100822890       11.7108259489
  C         0.9246136615       12.0571881775       12.4445795132
  S         0.8109715701        9.5032966627       12.4460227084
  H         1.1237683027       10.5630037354        3.3539009693
  H         0.1061499706       11.8762516683        3.0277387503
  C        -0.6448746585       10.0814717135        2.2881216078
  N         3.6270474128       17.0770678595        4.2458988002
  C         4.3412406706       16.7083758428        2.1041240761
  C         4.8090583260       14.4803144613        1.0809444127
  H         4.7115664337       12.9288335336        2.4764082901
  C        -0.1395941210       14.2463221027       11.4165806963
  C         2.0794534437       14.3464055301       12.4221869611
  C         0.4872344303       11.7492782543       13.7578932793
  C         0.4637738891       10.3475594057       13.9137414030
  H        -1.0366700990        9.1353970266        2.7428797813
  H        -1.4951290139       10.6984013654        2.0850771687
  C         0.2466918310        9.8484836114        1.0159190994
  S         3.6582632329       18.5284298890        3.5042509764
  N         4.2936229109       18.1241275734        2.0802336404
  C         4.7188192815       15.9784254602        0.9344972084
  H         5.0648871422       13.8214070389        0.2684660927
  H         0.1073948778       15.0038676597       10.6521105859
  H        -0.4198485329       14.7635274526       12.3167442787
  C        -1.3819983793       13.3916232540       11.0171386335
  H         2.4774903666       14.9857237200       11.6250830033
  H         1.5430934996       14.9369576480       13.1937450052
  C         3.3874002706       13.8061264687       13.0190090223
  H         0.1355250807       12.5349592979       14.4361034700
  C         0.1972580719        9.5764845948       15.2174952815
  H         0.5403847955        8.8186277728        0.8057809229
  H         1.1172482123       10.4034618498        1.1957489285
  C        -0.1504233081       10.4909380162       -0.2595455651
  C         5.0002227984       16.7417200835       -0.3150437098
  H        -0.9920433019       12.5299602983       10.3768048960
  H        -1.7136488176       12.8660074497       11.9219626273
  C        -2.4963501672       14.2873344594       10.3690901713
  H         3.7637374706       13.1073864228       12.2432471215
  H         3.1601088739       13.2873870406       13.9919233811
  C         4.4519344378       14.8159808450       13.2283822449
  C         0.0498836243        8.1901443242       15.3961110461
  C        -0.1383174048       10.3441816833       16.4370709629
  H        -0.2514387371       11.5937785690       -0.1029924320
  H         0.6059615676       10.4856750751       -0.9696468877
  C        -1.4391352738        9.9849915674       -0.8632432032
  H         4.9115337521       17.7989177813       -0.2110768711
  C         5.2993538124       16.3668047529       -1.6106588443
  H        -2.0482329429       14.9244265160        9.6390529294
  H        -3.0891760757       14.8545986303       11.1293894612
  C        -3.4112703681       13.3731440578        9.6169062099
  H         4.6601956923       15.1525358040       12.2140379455
  H         3.9764642645       15.5917093969       13.8272640234
  C         5.6266241631       14.0831883983       13.8748591016
  N         0.4051156939        7.2070434274       14.4268017502
  C        -0.3424231093        7.5934505961       16.5727347034
  C        -0.4980264262        9.7362726967       17.6052277023
  H        -0.1216259828       11.3640886965       16.4625853385
  H        -2.3251201841       10.0941248555       -0.2266107600
  H        -1.4198331807        8.9113569826       -0.9571775348
  H        -1.5550210935       10.4458552703       -1.8389962502
  S         5.7720615971       14.7426051841       -2.1178060758
  C         5.2182670526       17.3501434466       -2.6731549869
  H        -2.9189274322       12.7075942821        9.0057357870
  H        -3.6692695866       12.7128622426       10.4378849714
  C        -4.4810135501       14.1303618258        8.8613236799
  H         6.1791489600       13.5585543075       13.0583011921
  H         5.3203510253       13.4167184303       14.6518959771
  C         6.5259214034       14.9159178777       14.7384678346
  S         0.2131908449        5.7787386830       15.0471507475
  N        -0.3882453914        6.2140529259       16.5096242460
  C        -0.5853571355        8.3000352523       17.7658558360
  H        -0.8068056753       10.3842285598       18.3365667038
  C         6.0270803936       15.4701767265       -3.7076338147
  N         5.6189705836       16.7528963794       -3.8337408227
  O         4.9547679149       18.4897151758       -2.5870711652
  H        -4.9120803505       14.9139640748        9.5137599858
  H        -3.9557772589       14.6349990412        8.0176631551
  C        -5.5423120831       13.2250074542        8.3365009624
  H         6.0653716991       15.1679380109       15.6296244209
  H         7.3002972581       14.1897281824       14.9751541390
  C         7.1634357340       16.0706789168       14.0768455566
  C        -0.8969904170        7.5663768467       19.0008830899
  S         6.2968449986       14.5151407734       -5.1261798319
  C         5.5927728202       17.4799749832       -5.1213355833
  H        -5.0278496298       12.6592994766        7.5281934975
  H        -5.7165679347       12.5377533896        9.1567260671
  C        -6.7959223718       13.9754460780        8.0086777290
  H         6.6509728283       16.3601139786       13.2118663469
  H         8.1822426889       15.9005569490       13.7751443475
  C         7.2130953255       17.3284092148       14.9101783567
  H        -0.7956527196        6.4704264152       18.8921198729
  C        -1.3604457133        7.9139690779       20.2314822906
  H         6.1881424365       17.0479234777       -5.8861078661
  H         6.0230498328       18.5352222644       -4.9960731121
  C         4.1419478279       17.7442538312       -5.5108010048
  H        -7.3239670649       13.5535335475        7.1535877498
  H        -6.5057301841       14.9966856000        7.7700808285
  C        -7.7996566688       14.1990135027        9.1176979201
  H         6.2889494196       17.9107142726       14.6483425671
  H         6.8769707591       17.2425349737       15.9729224736
  C         8.5709620140       18.1228924543       14.8641807683
  S        -1.9875659422        9.4389140306       20.6876314427
  C        -1.4809058753        6.8543238628       21.1560830870
  H         3.4977303260       18.4367233728       -4.9209041354
  H         3.5968230429       16.8340027599       -5.6489714281
  H         4.0494302821       18.2325695936       -6.5140971410
  H        -7.4791006633       14.6214731532       10.0949364640
  H        -8.6914697563       14.7574548213        8.8757956839
  H        -8.1826444481       13.1723660891        9.5435183076
  H         9.4410097488       17.5763958154       15.2842501526
  H         8.8428720778       18.3349759884       13.7861346332
  H         8.4412208092       19.1226798088       15.3584034259
  C        -2.2271782101        8.6541239852       22.2054131640
  N        -2.0375178107        7.2900325000       22.2808683996
  O        -1.1390306131        5.6995276896       20.9837473723
  S        -2.9573281049        9.4282115724       23.5610492740
  C        -2.2401594874        6.4573567616       23.3774394029
  H        -2.4165273755        5.4562066570       23.0458753458
  H        -3.0879193124        6.7229942777       24.0178409729
  C        -0.9943669631        6.3730038753       24.2677557585
  H        -1.1939150147        6.9966701359       25.1807941888
  H        -0.1231002628        6.8223789740       23.7672010120
  H        -0.7146011569        5.3943206668       24.6869547387
