352
i =
  H        -3.3396095068       14.7571477282       16.2531893242
  C        -3.4620577624       13.6828464523       16.4973919504
  H        -4.3532542268       13.7366381758       16.9936295551
  C        -2.3680439007       13.1997426769       17.5004821582
  C        -3.5871042409       12.7340563371       15.2847839328
  C        -2.7369999235       13.4858556654       18.9316825130
  H        -2.1590616325       12.1677446646       17.3763610405
  H        -1.4896152135       13.8753636729       17.3679867889
  H        -3.9408959742       13.2959159317       14.3928354697
  H        -2.6352418327       12.2625452156       15.1123825417
  H        -4.2451322773       11.8306699641       15.5348258219
  C        -1.6376725958       13.0506408820       19.9588885330
  H        -3.7261857730       13.0839996543       19.2608370139
  H        -2.8768326780       14.5953503326       18.8900779957
  C        -2.1755725692       13.0814547837       21.3673167903
  H        -1.3509320662       12.0512607690       19.6767746554
  H        -0.6671991934       13.6293040532       19.9259456586
  C        -1.2131775536       12.4348765008       22.4355095800
  H        -3.1466731427       12.6441560440       21.4225355550
  H        -2.2989007695       14.1084918432       21.5919275307
  C        -0.0532444534       13.3586773381       22.7090828365
  H        -1.7967610440       12.1122658539       23.3144920188
  H        -0.9456786005       11.4012743610       22.1177342526
  C         1.2097631434       12.6020856694       23.2896014184
  H         0.1752193612       13.7737033540       21.7481446765
  H        -0.3186749015       14.2378457550       23.3129829572
  C         1.5342469643       11.3184032424       22.5607844035
  C         0.8011533542       11.8904408613       24.5174824014
  C         2.4136356476       13.6105638245       23.4496652843
  C         1.4261945138       10.2794014206       23.3757391286
  C         2.1871052144       10.9565207321       21.3791861835
  C         0.8540849195       10.5826196510       24.5716873337
  C         0.3854372843       12.5130072487       25.6740041669
  H         2.4224141655       14.1855923351       22.4815973454
  H         2.1961784098       14.2634479002       24.2843109265
  C         3.7497590606       12.8943189645       23.6333883744
  S         1.8058631535        8.7419079674       22.6777878605
  C         2.2091948603        9.5512969115       21.1967999566
  H         2.5345564612       11.6791280268       20.6874318589
  C         0.4138431778        9.9640935995       25.7269972611
  H         0.1880257393       13.5854494362       25.5736285893
  C        -0.0559485025       11.8295980410       26.7770007879
  H         3.9942957565       12.1635914513       22.8073836832
  H         3.7866219429       12.3483138575       24.6239071212
  C         4.9213648795       13.9208381486       23.6750909433
  C         2.5918176680        8.8848968211       19.9159735220
  C        -0.0635002053       10.4786318899       26.8852816777
  H         0.4536459714        8.8742115450       25.6128000258
  C        -0.5702064218       12.1949650902       27.9825964892
  H         5.8039097027       13.4456115858       24.1504982721
  H         4.6026613417       14.8357457963       24.1648143741
  C         5.4878212561       14.2721537488       22.3015510704
  C         2.6120592442        7.4012506482       19.7042723045
  C         2.8899748924        9.6829333961       18.6789701146
  C        -0.5236960030        9.7368991126       28.1616976625
  C        -0.7488414854       11.0634073305       28.7974227753
  S        -0.7677340242       13.6580437350       28.7542800286
  H         6.0940582646       15.1583127456       22.2844343926
  H         4.6403926340       14.2294633071       21.6065247411
  C         6.6169841663       13.2383660900       21.7341894891
  N         2.3490413876        6.5036844632       20.7530143540
  C         2.7286770020        6.7842612444       18.4175347067
  C         3.1840053951        9.0545848397       17.4287334308
  H         2.8309320530       10.7373970685       18.6814804066
  C         0.6549783794        8.8689505315       28.8119288334
  C        -1.8560144168        8.9238695085       27.7042161412
  C        -1.2529481657       11.4417620600       30.0646216973
  C        -1.2506489110       12.8046542811       30.1683374288
  H         7.4835736347       13.8133215908       21.5431961721
  H         6.7404118973       12.3779404356       22.4195682755
  C         6.2106349172       12.5980661032       20.4377077185
  S         2.2720523566        5.0246275945       20.0861119156
  N         2.6122733330        5.3790710768       18.5303318404
  C         3.1790779614        7.5520399592       17.3005113140
  H         3.4076325854        9.6902673281       16.5713497411
  H         0.9891227835        8.1113942853       28.1354271921
  H         0.2648376622        8.3004136402       29.6537908124
  C         1.9380448409        9.6405895802       29.2079925498
  H        -1.4788964068        8.4292006986       26.8099996393
  H        -2.1411392991        8.2530637715       28.5234268786
  C        -3.0216890521        9.7300980009       27.3374993094
  H        -1.5355758968       10.6925585771       30.7914465333
  C        -1.5940537090       13.5254530429       31.4545893099
  H         5.2693366101       12.0323015161       20.5249600751
  H         7.0364690300       11.8770669427       20.0847683978
  C         5.9421236696       13.7308085488       19.4255003620
  C         3.2043534718        6.8556649188       16.0162933287
  H         2.3469550302       10.0124230381       28.2371529758
  H         1.7038488765       10.4176020525       29.9166689902
  C         2.9412191819        8.7396813053       29.8867902117
  H        -2.7344662297       10.2510148021       26.4436201022
  H        -3.1842736886       10.5562122390       28.0072143853
  C        -4.3967955032        9.0463317698       27.1987734870
  C        -1.5617667135       14.9195204749       31.7406190795
  C        -1.9254033949       12.6993075377       32.6328342787
  H         4.9150729770       13.8869403558       19.3665176010
  H         6.5018365017       14.6586540926       19.6712116459
  C         6.5337656820       13.3112116355       18.0857465550
  H         2.9668138560        5.7858846635       16.0922884466
  C         3.4993105877        7.3034725557       14.7156012107
  H         3.4008433095        7.9410606567       29.3204353797
  H         2.4494287115        8.2660193121       30.8124561509
  C         4.1007583235        9.6625220463       30.4392074621
  H        -4.3939387818        8.2757362075       26.4299899237
  H        -4.8203810962        8.7450057412       28.1016992044
  C        -5.3144292685       10.0587524826       26.5647714389
  N        -1.3891577905       15.9610208195       30.7675065469
  C        -1.9037154240       15.4151898711       33.0297134968
  C        -2.1880837048       13.2375689836       33.8760571532
  H        -1.9120854219       11.6181001924       32.5507231981
  H         5.8530382884       12.6743511054       17.5467739022
  H         6.6334969585       14.1782134243       17.4162681391
  H         7.5464348209       12.9201408189       18.1349155821
  S         3.7951776078        8.9388364119       14.2268627567
  C         3.6480176755        6.3152476759       13.6794193933
  H         4.1199117037       10.6805494894       29.9405391145
  H         3.9214391220        9.9412161062       31.4569530314
  C         5.5457762248        9.1149320453       30.4149237412
  H        -4.8101947694       10.4906137798       25.6781361291
  H        -5.5694136530       10.8746533483       27.2262391062
  C        -6.5648624543        9.4390749827       26.0681540639
  S        -1.6315491160       17.3846008544       31.4671719410
  N        -2.0522792690       16.7699470978       32.9390204611
  C        -2.1955716185       14.6628138974       34.1655344434
  H        -2.3044725976       12.5102026304       34.7000941989
  C         4.1567171262        8.3480885994       12.6814460768
  N         4.1370198284        6.9854528108       12.5746846903
  O         3.4258041514        5.1173860354       13.9092849807
  H         6.1894492419        9.9127284338       30.8044992465
  H         5.9104524944        8.7108164196       29.3774997143
  C         5.6850451571        7.9753480858       31.4348328021
  H        -6.4916017159        8.6176326074       25.3425195742
  H        -6.9480109254        8.9372282751       26.9402779960
  C        -7.5986451111       10.3652358080       25.3748400086
  C        -2.6446550124       15.2946016426       35.3526371614
  S         4.5450366719        9.3529017341       11.3263612138
  C         4.2110211103        6.2756272863       11.3116934341
  H         6.1188868341        8.2418925331       32.3051598689
  H         4.7078271337        7.6553469193       31.7564513642
  C         6.4290723657        6.8076434614       30.8305223815
  H        -7.1056793652       10.8417310868       24.5403327035
  H        -7.9100232468       11.1210533633       26.0092641447
  C        -8.7338911645        9.6994344498       24.6495806850
  H        -2.2682363204       16.2784065418       35.4482223908
  C        -3.3574718484       14.8389574238       36.4364101156
  H         5.0660651239        6.6828639097       10.7434090447
  H         4.5559844161        5.2658666204       11.6549507440
  C         2.8582234086        6.1042062344       10.5528679101
  H         7.4235937247        7.0845943972       30.5763115597
  H         6.0061641026        6.5438444790       29.8769911688
  C         6.5811327131        5.6298243312       31.8020010101
  H        -8.9233605994       10.1761996736       23.7297173074
  H        -8.4642859627        8.7906788531       24.2761509164
  C        -9.9336017389        9.5396769076       25.5061807970
  S        -4.0585456273       13.2574000585       36.5437343084
  C        -3.5434764831       15.7273341541       37.5599100757
  H         2.9379998601        5.1451066254       10.0567474985
  H         1.9861752884        6.0939690714       11.1301095748
  H         2.7242056050        6.8213018668        9.7787859159
  H         7.2127951475        5.9407732842       32.6778040722
  H         7.1927905189        4.8520557835       31.3080357158
  H         5.6283362562        5.2165124643       32.2324414844
  H       -10.8278421922        9.4060923710       24.9057851936
  H       -10.0705063500       10.4311657568       26.0372028840
  H        -9.7965242202        8.7781545184       26.2776847629
  C        -4.6055871960       13.8337879987       38.1085598663
  N        -4.2951596625       15.1011563994       38.4423448424
  O        -3.0923902432       16.8559168772       37.6371470896
  S        -5.6129989755       12.9300071349       39.1980310531
  C        -4.5570499549       15.6315786359       39.8133901208
  H        -4.6914041851       16.6743246215       39.6851382732
  H        -5.5756789802       15.3071794939       40.1926826528
  C        -3.4736060769       15.1536074554       40.7697648769
  H        -3.0930819215       16.0293877591       41.3220831730
  H        -3.7674681935       14.3542912767       41.4879326830
  H        -2.6790488114       14.7159935423       40.2003382792
  H         8.2057798585       11.7510763944        3.6170029097
  C         8.4354612317       10.6898193754        3.5717695236
  H         7.5037121730       10.1777555840        3.6148000861
  C         9.2470380067       10.2857066502        4.7929065469
  C         9.1268667724       10.3419720332        2.2656097159
  C         8.5005180104       10.5470306945        6.1341407537
  H         9.4718055251        9.2060948219        4.7226355109
  H        10.1609747682       10.8121677347        4.7927211039
  H         8.6796224521        9.4388878734        1.8849818532
  H        10.1567830736       10.1835443422        2.4854112702
  H         8.9428554569       11.1767024229        1.5716101814
  C         7.5909726627        9.4209929544        6.5994607302
  H         9.1587571581       10.8282636316        6.9098462282
  H         7.7734899297       11.3395754834        5.9358494092
  C         6.7816564989        9.6626014447        7.9431207571
  H         8.1764400466        8.5106851829        6.8487490143
  H         6.9538641933        9.0423044251        5.7757305622
  C         5.5298445536       10.4964976193        7.5883165534
  H         7.4172557605       10.1244984070        8.6584438680
  H         6.4201489964        8.7852973717        8.4189027595
  C         4.3387431613        9.7952821668        7.0340955324
  H         5.1723161787       10.8970724681        8.5442044687
  H         5.8228155014       11.3101917059        6.9692112124
  C         3.0937989787       10.6918823338        6.9602322319
  H         4.0980272886        8.9784887319        7.7171046904
  H         4.5373360400        9.3448026296        6.0800770971
  C         3.4273158400       12.0378381537        6.2921821191
  C         2.7448626910       11.2993152917        8.2600366491
  C         1.8516526473        9.9514457010        6.2338473064
  C         3.1721137548       13.1143850159        7.1596154160
  C         4.1082013253       12.4396513857        5.1259349891
  C         2.7411295194       12.6721346435        8.4377460902
  C         2.1785546901       10.6411365913        9.3550848990
  H         2.1680212157        9.8419690714        5.1967484056
  H         1.6124763986        8.9372896429        6.6602906139
  C         0.4950796612       10.7013200733        6.2452938863
  S         3.7441854364       14.6182195649        6.4779860105
  C         4.1465464684       13.8043528317        4.9922007253
  H         4.3427465980       11.6739448881        4.4129024680
  C         2.4180760633       13.2645211446        9.6124667848
  H         2.0170248417        9.6280447306        9.2654413744
  C         1.8951232804       11.2069440859       10.5472863287
  H         0.6083764200       11.7645019135        5.9633892182
  H        -0.0071961143       10.7783955582        7.2204404389
  C        -0.5553640046       10.0513924819        5.2975317320
  C         4.4459428698       14.4787712682        3.7125645550
  C         1.9387118550       12.5639353994       10.6966850080
  H         2.3368519401       14.3159515252        9.6483075882
  C         1.3651885817       10.7398970632       11.6947383274
  H        -1.5192997681       10.3291055162        5.6942740137
  H        -0.4790495095        8.9744929807        5.3602089474
  C        -0.3655691190       10.4294914776        3.8030775588
  C         4.3591999249       15.8703863557        3.4598194123
  C         4.8866162695       13.6727430701        2.5106350412
  C         1.5261790594       13.1787741923       11.9879823261
  C         1.2238246077       11.7774825997       12.5753937846
  S         0.9535659765        9.2258869502       12.2780293586
  H         0.7049008269       10.3783360696        3.5709659765
  H        -0.5745990534       11.4712051319        3.8154850924
  C        -1.1672127522        9.5526573275        2.8913991899
  N         4.0018822388       16.8514537497        4.3902479628
  C         4.6415938870       16.3961283538        2.1619314704
  C         4.9483279061       14.1439639241        1.2150137860
  H         5.1708103674       12.6266631819        2.6527460407
  C         0.2439088361       14.0746058139       11.8138924975
  C         2.6945454735       13.8768419877       12.6996649746
  C         0.8393286355       11.3121859734       13.8165593336
  C         0.6736369328        9.9350517584       13.8621985488
  H        -1.6595177998        8.7565313112        3.4654919356
  H        -1.9624235835       10.1439972156        2.3825701836
  C        -0.2803103234        9.0518895558        1.7776716611
  S         4.0401613760       18.2896011233        3.6368481850
  N         4.5115628227       17.8014966467        2.1645423476
  C         4.8889853566       15.5885126406        1.0075757718
  H         5.2079428740       13.4362676518        0.4260905637
  H         0.4475617619       14.9315109587       11.1495606807
  H        -0.1413350276       14.5252636548       12.7894699457
  C        -0.9377806066       13.3410532547       11.1435762704
  H         2.8435243541       14.8020968296       12.1485853360
  H         2.3319556143       14.1900623730       13.7419549976
  C         3.9972381962       13.0059945308       12.9063422569
  H         0.5335280095       12.0273090322       14.5312386078
  C         0.3507881177        9.1370261981       15.0432474341
  H        -0.8566448084        8.3628484333        1.1715865354
  H         0.6503724469        8.5357264064        2.2055009835
  C         0.1927590222       10.0832915682        0.7920371096
  C         5.1889611421       16.2021403274       -0.2617424760
  H        -0.5627372303       12.8407145661       10.2069567817
  H        -1.2035537855       12.4616682678       11.7741048226
  C        -2.1644036656       14.1478390685       10.7805434063
  H         4.3767768807       12.5204089271       11.9773623076
  H         3.7434972022       12.1521526826       13.5692509169
  C         5.0855338503       13.7855714231       13.5852058761
  C         0.3326857955        7.6903466173       15.2325072913
  C         0.1454626335        9.8134470280       16.3164025776
  H         0.1230757985       11.0027091308        1.3280033804
  H         1.2547320458        9.9678182773        0.5989357360
  C        -0.6688447440       10.0330681030       -0.5471680896
  H         5.0799041745       17.2649032384       -0.3281244480
  C         5.4844613498       15.6834496491       -1.5209386465
  H        -1.8543260064       14.8528477034        9.9402415672
  H        -2.5304492065       14.7835741418       11.6765148725
  C        -3.2875076427       13.2121675878       10.4033562491
  H         5.7379896183       14.0821569696       12.7589842237
  H         4.6754204839       14.5663606794       14.2054721322
  C         5.9896680949       12.9612036114       14.5027517803
  N         0.3785046725        6.8315761525       14.1250115982
  C         0.0214895456        7.0724372524       16.4075493999
  C        -0.0593271268        9.2077958561       17.5581678909
  H         0.2599235119       10.8553831505       16.3248171406
  H        -0.0679948487       10.2638658146       -1.4855960891
  H        -1.5196511054       10.7284767504       -0.5005950859
  H        -0.9643005413        9.0816651726       -0.7035053274
  S         5.9501564472       14.0154248789       -1.9647573647
  C         5.5394447142       16.6814935327       -2.6199886637
  H        -3.0381491510       12.4696854548        9.6372461575
  H        -3.3293277840       12.4993649611       11.2213723110
  C        -4.6334840502       13.8815089337       10.1374358762
  H         6.0741397864       11.8952154477       14.2112160581
  H         5.4083997837       12.9053879846       15.3812031565
  C         7.4426174812       13.4899981414       14.4512818532
  S         0.1132915862        5.3629787242       14.7219268068
  N        -0.1393673526        5.6869787276       16.2589892422
  C        -0.2146971737        7.7586392829       17.6342729016
  H        -0.2306195507        9.8630491370       18.4082553419
  C         5.9772234167       14.7140084930       -3.6143656105
  N         6.0113413342       16.0923017630       -3.7163903131
  O         5.2546446405       17.8335600918       -2.4677439507
  H        -5.0911404053       14.3457865327       11.0050666469
  H        -4.2500636077       14.6439937526        9.4060606620
  C        -5.7036050341       12.9002408637        9.5634227081
  H         8.0444400725       12.8539666527       15.1215500446
  H         7.8207796466       13.4439583544       13.4264292582
  C         7.6189755521       14.9077479048       14.9625435789
  C        -0.5762928355        7.1550506677       18.8812532849
  S         6.5850968935       13.7669081680       -4.9484132824
  C         6.0856162119       16.8410436584       -4.9417076453
  H        -5.2760148131       12.6090954716        8.5798247236
  H        -5.7202357419       12.0121830041       10.1255665977
  C        -7.0366060803       13.5939225750        9.3280121755
  H         8.2539797836       14.8699172224       15.8397560520
  H         6.6457774516       15.3381497925       15.3361081045
  C         8.1466151698       15.9244868676       13.9488260813
  H        -0.4820169569        6.1170081667       18.9323375574
  C        -0.9925639307        7.5141528757       20.1581347947
  H         6.6929031283       16.3150416471       -5.7119803276
  H         6.7213867293       17.7533528041       -4.7867010836
  C         4.7200780825       17.2034645986       -5.4893538979
  H        -7.5475575441       13.1529785861        8.4788473816
  H        -6.9324367423       14.5871458883        8.9861157582
  C        -7.9749686268       13.5467789383       10.5815120576
  H         9.1523177835       15.5431076077       13.6635866666
  H         7.5985310384       15.9353397358       13.0713735862
  C         8.3765874882       17.3645038388       14.5248579616
  S        -1.6500816934        9.0510118306       20.6810924371
  C        -1.1096908737        6.4254695684       21.2056910634
  H         4.6565011940       17.0163859244       -6.5258764335
  H         4.4683625276       18.2339091325       -5.3298936427
  H         4.0005148843       16.6036449172       -4.9349772459
  H        -8.9753720150       13.4776302842       10.2690651293
  H        -7.8149904705       12.6742043429       11.1567068663
  H        -7.7653075370       14.4517120890       11.2348998105
  H         8.3556856562       18.1641581562       13.7414218352
  H         7.6169486604       17.5877239652       15.2427266216
  H         9.2711535911       17.4413294025       15.1322461389
  C        -1.7958920718        8.3292169040       22.3064940180
  N        -1.5971834157        6.9731629015       22.3324733909
  O        -0.9026108016        5.2500029254       20.9743116777
  S        -2.5159389899        9.1925709782       23.5807038332
  C        -1.8865491258        6.1446613106       23.4744028148
  H        -2.3201611213        5.2461838178       23.0834504595
  H        -2.6693731841        6.4681954083       24.1777053659
  C        -0.5900564865        5.9695749855       24.3591586852
  H        -0.4223901535        4.9914376194       24.6341239811
  H        -0.6756662627        6.6404707167       25.2006932999
  H         0.2318485281        6.2921541431       23.7479117507
