352
i =
  H        -2.8733978068       14.7070027156       16.1399941490
  C        -2.7980708335       13.6136314239       16.3071701809
  H        -3.7494600850       13.2045938147       16.4730786656
  C        -1.7824848587       13.4765547752       17.4052144742
  C        -2.5440396047       12.9862611863       15.0184373816
  C        -2.5523984267       13.1961683291       18.7051539993
  H        -1.1645736249       12.5851085104       17.1411598865
  H        -1.2216102942       14.3768154905       17.4230566390
  H        -2.2066165934       11.9152093666       15.0099426883
  H        -3.4739928516       13.0562885193       14.4500419010
  H        -1.9475499716       13.6633307045       14.4155142629
  C        -1.7641608546       12.4470006111       19.7531465112
  H        -3.4264010244       12.5389942068       18.5769678604
  H        -2.9334031192       14.0825405047       19.1654490717
  C        -2.1469829798       12.8806852120       21.2144607228
  H        -1.8992245889       11.4008857356       19.5331253799
  H        -0.6963956862       12.5077488861       19.5660810232
  C        -1.1967712128       12.3097054616       22.2509492147
  H        -3.1892417083       12.4067248346       21.3350695734
  H        -2.2114227284       13.9833509806       21.2599346356
  C        -0.1786537029       13.4386859471       22.6610542573
  H        -1.6909220456       12.1251604163       23.2349799565
  H        -0.7362032840       11.4183888754       21.9668423312
  C         1.1046371526       12.9508562038       23.4592922008
  H         0.0485963170       14.0959913307       21.8372218925
  H        -0.7198122502       14.0599645830       23.4020953679
  C         1.6114050549       11.6035238921       22.8377521088
  C         0.6797819304       12.2120310059       24.6511619980
  C         2.2298970289       14.0115889079       23.5220794879
  C         1.4582026834       10.4813605777       23.6008785638
  C         2.1370026898       11.2876805880       21.5622816711
  C         0.8344244783       10.8817513477       24.8410812192
  C         0.1489223276       12.7678268527       25.8258514302
  H         2.3978286427       14.3910589291       22.5032666300
  H         1.8946268800       14.8396771812       24.1030644728
  C         3.4404732026       13.5191506864       24.2926240979
  S         1.9258369560        8.9786516102       22.8150208315
  C         2.2896123480        9.9072624714       21.3676439077
  H         2.3111045692       12.0751292932       20.8652981508
  C         0.4639908520       10.2257047148       25.9903876225
  H         0.0418135832       13.8614831000       25.8140634101
  C        -0.1633127730       12.1270324588       27.0356290881
  H         3.9064243284       12.7200860631       23.7304271780
  H         3.2518757595       12.8682705504       25.1320500133
  C         4.5606451098       14.5066670980       24.7267597393
  C         2.6832213440        9.3275791610       20.0458861619
  C        -0.0348932293       10.7765629726       27.1800336560
  H         0.5979266441        9.0866472860       26.1084862380
  C        -0.5491230356       12.5278446414       28.3137932440
  H         5.1381218092       14.0677631694       25.5508494227
  H         4.0707932351       15.3294452801       25.2179957974
  C         5.2611016557       15.1135031685       23.4421363422
  C         2.6078303213        7.8964962569       19.8085146666
  C         2.9059859802       10.1407156677       18.8336120116
  C        -0.3425608123       10.0737585389       28.4761467779
  C        -0.6548843556       11.4763525801       29.1107044001
  S        -0.7254999732       14.0129074842       29.0225170762
  H         5.5146738444       16.1364590340       23.7064509056
  H         4.5226276220       15.2068444112       22.6092775932
  C         6.4264874373       14.2369609257       22.9233106615
  N         2.1758660527        6.9047059168       20.6814035054
  C         2.7390987939        7.3951891245       18.5127216461
  C         3.1946893488        9.5680226394       17.5779812063
  H         3.0709999071       11.2179465851       18.9735561038
  C         0.8199817002        9.2942947286       29.1200830708
  C        -1.6560953708        9.2753783140       28.2206000564
  C        -0.9834017631       11.8869127403       30.4820513630
  C        -1.1279737957       13.2144218501       30.4919494095
  H         7.4238796360       14.7773584520       22.7494578527
  H         6.4870882500       13.5402838453       23.7928968116
  C         5.9728501473       13.4628955272       21.6871498745
  S         2.2588123999        5.4701380212       19.9300615922
  N         2.5551331126        6.0179508079       18.4568578794
  C         3.1797542430        8.0767231369       17.3594719961
  H         3.3558865928       10.2146740149       16.7846858331
  H         1.2292967397        8.5540285707       28.3866757942
  H         0.3876208710        8.7204614356       29.9650192344
  C         2.0138323731       10.2036445086       29.4819346755
  H        -1.4997572929        8.4499619129       27.5821576649
  H        -1.8680829880        8.7775672317       29.1467610496
  C        -2.8480656164       10.1944604377       27.9685663467
  H        -1.1953519924       11.1460540355       31.2392443329
  C        -1.4832048758       14.0248803585       31.6879451502
  H         5.7125001044       14.1051779435       20.8983128238
  H         5.0506383454       12.8192776242       21.9087579946
  C         6.9468208910       12.3497762049       21.1838179901
  C         3.3506157020        7.4388939070       16.0857664716
  H         2.2433253393       10.6032915811       28.4659678665
  H         1.6912460898       10.9827943312       30.1303038876
  C         3.1965556791        9.5172692269       30.0940684205
  H        -2.5630126375       10.8605280280       27.1652861482
  H        -3.1417730107       10.7565203733       28.8904470618
  C        -4.1537350289        9.4864314608       27.5020945030
  C        -1.5137870934       15.4560160481       31.7931036910
  C        -1.6337105688       13.2972151425       32.9417180747
  H         7.0746843791       11.5694249268       22.0054763504
  H         6.4183035291       11.8834556906       20.3880549466
  C         8.3549181562       12.8476777350       20.6583531621
  H         3.2184108747        6.4074431869       16.1741551093
  C         3.7903004123        7.8384506954       14.8424779090
  H         3.6712387150        8.9743952865       29.2815009679
  H         2.7971156781        8.6808192845       30.6803630691
  C         4.2034621024       10.2495128787       30.9297351327
  H        -3.9238494410        8.6202735421       26.8532872480
  H        -4.6185161422        9.1386728929       28.4722371249
  C        -5.2053865985       10.4889341041       27.0078857945
  N        -1.3198586500       16.3388970571       30.6527227458
  C        -1.9010594573       16.1030666445       32.9292015026
  C        -1.8853000630       14.0065449780       34.0898669132
  H        -1.5506471346       12.2209095239       33.0475698775
  H         8.7275296191       13.5762573120       21.3668528597
  H         9.0568893196       12.0465809808       20.4991237495
  H         8.1550962724       13.4570416377       19.7294732128
  S         4.2656829976        9.4259547897       14.3684122249
  C         3.8490749984        6.8480967861       13.7199530766
  H         4.1138444059       11.3217517332       30.7017013310
  H         4.0618673976       10.3206064365       31.9956488821
  C         5.6189653773        9.8408681764       30.6818567783
  H        -4.8220537086       11.2255591010       26.3847679510
  H        -5.6394199852       11.0570109830       27.8275095334
  C        -6.2902938635        9.7341156459       26.2109865037
  S        -1.7794980934       17.8025318741       31.1923568521
  N        -1.9703142149       17.4422924706       32.7556385816
  C        -2.2101525594       15.4803012913       34.1171858884
  H        -2.0331087513       13.4563469975       34.9874019355
  C         4.3999875866        8.8261208832       12.6725030705
  N         4.2385309298        7.4637465017       12.6196065761
  O         3.5412908601        5.6318085375       13.8187896643
  H         6.1630722953       10.4796394052       31.3317345319
  H         5.9019599911       10.0459764726       29.6510019838
  C         5.9327390396        8.4164526041       31.0456142678
  H        -5.9251287852        9.1760490446       25.3490585853
  H        -6.6418754863        8.9442534490       26.9118872448
  C        -7.4739874338       10.6603523369       25.7829575005
  C        -2.6220620576       16.2766150757       35.2333352348
  S         4.8375372829        9.7041251222       11.1890065055
  C         4.3660672889        6.7596730479       11.3293444352
  H         6.2381149402        8.5408543511       32.0617288038
  H         5.0390418926        7.7305579924       31.0663791875
  C         7.1174675025        7.7704899526       30.2232902785
  H        -7.2220461330       11.3071149006       24.9344110566
  H        -7.7799704716       11.3349882635       26.5886777033
  C        -8.5491434535        9.7658674995       25.2485775386
  H        -2.4935829041       17.2870438981       35.1284038826
  C        -3.0671042231       15.9381329205       36.4918010521
  H         5.1581256365        7.0185244047       10.6209624521
  H         4.7368504939        5.7670632653       11.5456111506
  C         3.0325355673        6.4127965279       10.7160511058
  H         8.1460036847        8.0725103700       30.5790100726
  H         6.9908000443        8.0264682843       29.1246549738
  C         7.0809120494        6.2696537484       30.3235507772
  H        -8.9436879576       10.0485975165       24.2368222090
  H        -8.2675627450        8.7093449567       25.1010936183
  C        -9.7452924415        9.5275336048       26.2087954930
  S        -3.4721442403       14.4002745306       36.9706048548
  C        -3.2028678201       17.0331614831       37.5176297249
  H         2.8822870637        6.6365911777        9.6383027816
  H         2.9510340242        5.3389827193       10.8996418511
  H         2.1909356854        6.8944380388       11.2118092076
  H         6.0190164516        5.9298373363       30.2624252715
  H         7.4940310487        5.9773653140       31.2796976789
  H         7.5918321801        5.8304245952       29.4980515410
  H       -10.3341600107        8.7464284495       25.6522164403
  H       -10.4253808526       10.3373229212       26.3327804994
  H        -9.5907575917        9.2542265657       27.2400552491
  C        -3.8452199210       15.1369320830       38.5784061842
  N        -3.7339292761       16.4775921042       38.6478281512
  O        -3.1168753262       18.2160212355       37.2450582672
  S        -4.2884989352       14.2223024497       40.0811059836
  C        -4.1235196817       17.2607856227       39.8161542812
  H        -4.4509713610       18.2211962139       39.4530417080
  H        -5.0261801367       16.8872105759       40.2444530647
  C        -2.9157015006       17.3594599689       40.7678646922
  H        -2.9638598270       18.3091721238       41.3304796397
  H        -2.8924529036       16.5394309933       41.4834650247
  H        -1.9659443984       17.2263087973       40.2098662332
  H         7.7049540795       10.7087646336        2.9403605713
  C         8.4250471848        9.9680686278        3.1985050483
  H         7.9454369333        9.0273382406        3.0070081198
  C         8.9669118629        9.9413872014        4.6537639824
  C         9.6302331805       10.2577952327        2.4156964220
  C         7.9461129224       10.1518213002        5.7469594355
  H         9.4984806908        8.9345991514        4.8169923421
  H         9.7172897077       10.7641691880        4.8262874399
  H        10.0193432959       11.2373238210        2.7269268365
  H         9.3606779700       10.2589034782        1.3387942209
  H        10.3428686051        9.4185874865        2.5411779018
  C         7.4203301612        8.8533755767        6.4291506950
  H         8.4595474516       10.8456712920        6.5203538388
  H         7.1603130625       10.7017452202        5.3201537916
  C         6.6696582891        9.0060820203        7.7581761819
  H         8.3270902914        8.1070061896        6.4929211309
  H         6.8131915564        8.3686336968        5.6714023684
  C         5.4642321142        9.9825601555        7.6874926425
  H         7.3748073855        9.5491272425        8.3722675896
  H         6.4702848956        8.0590271056        8.2239458237
  C         4.1965405289        9.2160992261        7.3250780842
  H         5.2656028553       10.4497013457        8.6408135468
  H         5.5963853456       10.7923119166        6.9821064573
  C         2.9793161102       10.1903966366        7.2098933267
  H         4.0149324119        8.4958974694        8.1484415251
  H         4.4644818219        8.6987117310        6.3882990948
  C         3.3150252293       11.5661164229        6.5484925910
  C         2.5375950142       10.8235996998        8.5258537448
  C         1.7971896263        9.4664467871        6.4627018839
  C         3.0083033886       12.6290247052        7.3654980867
  C         3.8718867479       11.9743108768        5.3197143305
  C         2.4917079067       12.1786651468        8.5807254327
  C         2.0745955215       10.1459835637        9.6736167692
  H         2.1849005570        8.9065426795        5.6628544209
  H         1.4220132762        8.6798096442        7.1634331379
  C         0.6306264481       10.4294275528        6.0475996519
  S         3.4541476028       14.1230275770        6.6196467544
  C         3.8912796559       13.3212118261        5.1481152337
  H         4.2147492329       11.3098637852        4.5841265839
  C         2.1024236833       12.8158563942        9.7464751706
  H         2.0392495398        9.1005405796        9.6926221628
  C         1.7757060302       10.8371288915       10.8122654477
  H         1.0166379658       11.3320860688        5.6635169081
  H         0.0231744881       10.6420325372        6.9459445752
  C        -0.2528695964        9.8927818853        4.8857993452
  C         4.3080644140       14.0228403702        3.9029503042
  C         1.7820387713       12.1709856816       10.9074612783
  H         2.0841025716       13.9206589029        9.7697640610
  C         1.3418005740       10.3738481942       12.0613727521
  H        -1.1608522756       10.5922421269        4.8133662719
  H        -0.7469141217        8.8849715557        5.0865530148
  C         0.5065724528        9.8087877929        3.5750181814
  C         4.1144173001       15.4409313734        3.6970363210
  C         4.8507707744       13.2320832041        2.7548214565
  C         1.2141038851       12.8171731814       12.1273979789
  C         1.0144757275       11.4546201095       12.8862633789
  S         1.0450067286        8.8464467356       12.7667022959
  H         1.2271497689        8.9328632645        3.4727178591
  H         0.9341747036       10.7999323736        3.4187352156
  C        -0.5694429584        9.6528726510        2.5036990398
  N         3.7012075605       16.3420312055        4.7293007289
  C         4.3583000364       16.0901463125        2.4708044218
  C         5.1048266523       13.9224627991        1.5769223145
  H         5.1255914050       12.2430794655        2.8355127100
  C        -0.0312975135       13.6037292497       12.0421254029
  C         2.1801321737       13.6316956306       12.9948556555
  C         0.5348608540       11.0506867225       14.1468154070
  C         0.6438044487        9.6330545093       14.2960390593
  H        -1.0860688378        8.7069951779        2.6079952353
  H        -1.3832736732       10.4403263663        2.5931514912
  C        -0.0882724492        9.7010873355        1.0861507686
  S         3.7542655790       17.8145681130        4.0511609385
  N         4.1698555345       17.4382558418        2.5234643937
  C         4.7598626079       15.3176779836        1.3325180014
  H         5.5554784364       13.3556333824        0.8285663743
  H         0.0800510552       14.4507947198       11.3053840685
  H        -0.2662324425       13.9824996663       13.0639361221
  C        -1.2651982739       12.8150540785       11.5110939089
  H         2.2302232710       14.6793701048       12.6175152712
  H         1.7425657538       13.7696067204       13.9795653812
  C         3.6117285574       12.9768460055       13.3333027127
  H         0.1001480718       11.6810718232       14.8696336252
  C         0.3520664998        8.9498452712       15.5904101998
  H         0.9302750596        9.1838921258        0.9666170863
  H         0.0938070813       10.7091187810        0.7448909446
  C        -1.1514116044        9.0497217494        0.1790831099
  C         4.9338077114       15.9781834155        0.1368031719
  H        -0.9292412461       12.2274038422       10.6205260887
  H        -1.3550449545       12.0534968761       12.2845437991
  C        -2.4919920322       13.7304036792       11.3498310742
  H         4.1848716558       12.7565246509       12.4465373209
  H         3.4821668383       12.0628877448       13.9639882598
  C         4.5496478357       13.9377049016       14.0989115618
  C         0.2897688314        7.5242776421       15.8091278316
  C         0.0328168845        9.8121885486       16.7850460658
  H        -1.2389780571        7.9822360081        0.3856842277
  H        -2.0950768063        9.5715453781        0.4356366758
  C        -0.7458394790        9.1905627987       -1.2241126945
  H         4.7007327174       17.0297523852        0.1336475520
  C         5.3739716766       15.5367273905       -1.1195489009
  H        -2.2540450402       14.4484991671       10.5777959165
  H        -2.7760409220       14.1467984854       12.2956182639
  C        -3.5902169190       12.9118753114       10.7270477783
  H         5.0304695622       14.6436883055       13.3491010079
  H         3.9582816478       14.4881574937       14.8510402394
  C         5.6660427673       13.1700191192       14.7189902665
  N         0.6989011442        6.5880653840       14.8819331331
  C        -0.1853466631        7.0161248095       17.0061389216
  C        -0.4187333345        9.2564617594       17.9501695374
  H         0.1802130995       10.8819009814       16.8048109439
  H         0.0796735146        8.5303958550       -1.4384124848
  H        -0.4002922877       10.1734339310       -1.5432461127
  H        -1.5386830688        9.0373817332       -1.9172814478
  S         5.7931460827       13.9436762257       -1.5411894712
  C         5.3860372853       16.5365933223       -2.1922496853
  H        -3.1252057890       12.1873091559       10.0148587418
  H        -4.2573201256       12.4497028561       11.5069792205
  C        -4.6524841477       13.8020128659        9.9977454695
  H         6.1329473010       12.4327034305       14.0975788662
  H         5.2830683923       12.4882572813       15.4799984179
  C         6.7970113833       14.0725405496       15.2683511909
  S         0.3219406551        5.1678373061       15.5241979823
  N        -0.2034897737        5.6185342048       16.9485328669
  C        -0.6233407717        7.7502901763       18.0960965283
  H        -0.6590825579        9.8928949680       18.7904320274
  C         6.0721356132       14.6088464891       -3.1555707914
  N         5.7997840820       15.9654355917       -3.3252095676
  O         5.0941340728       17.7191574077       -2.0076061771
  H        -5.3043952037       14.3324942116       10.7008769962
  H        -4.1067863071       14.5138113747        9.3852688725
  C        -5.4036555923       12.8866008118        9.1350417881
  H         6.4843058134       14.8542400883       15.9223152979
  H         7.5322845103       13.4915396107       15.8105621502
  C         7.6000725230       14.7368391655       14.0982397114
  C        -0.9456426773        7.0670642738       19.2901362471
  S         6.6058283632       13.7712582443       -4.5625251444
  C         5.7619243815       16.5952106545       -4.6486178211
  H        -4.7169085823       12.6055284447        8.3532574757
  H        -5.8646025234       12.0297059455        9.6175961638
  C        -6.6726170950       13.7006169017        8.6989632156
  H         6.9932574167       15.4134885230       13.5199843114
  H         7.9390645404       13.9644702777       13.3704309489
  C         8.8205988772       15.4693789166       14.6659460730
  H        -0.6119822663        6.0370322973       19.2563720535
  C        -1.5506688992        7.4034197824       20.5060527890
  H         6.4563035594       16.1217211750       -5.3152838143
  H         6.0638797458       17.6964027332       -4.6547082914
  C         4.4066212905       16.5389868625       -5.2156156666
  H        -6.9892183129       13.0605251717        7.8362473961
  H        -6.3686216808       14.7146736944        8.3338157378
  C        -7.7768826164       13.7456718513        9.7965405417
  H         8.5049322300       15.5712948295       15.6828608010
  H         9.7219499405       14.9041722341       14.6885237720
  C         8.9761897037       16.8039095004       13.9302344451
  S        -2.0480528532        8.9816976530       21.0207035053
  C        -1.7487196010        6.3419235334       21.4752694522
  H         3.6277871715       16.6935422688       -4.4923083924
  H         4.3423058606       15.5478237143       -5.6835653917
  H         4.2788602356       17.1982225154       -6.0962045273
  H        -8.7449360863       13.6172346114        9.3032599720
  H        -7.7580879039       12.8386725290       10.3470401401
  H        -7.7290022705       14.6092848389       10.5285766121
  H         9.2074161090       16.7040467711       12.8387748633
  H         8.1260115029       17.3844439384       13.8590531150
  H         9.8069567658       17.4877462663       14.4134292694
  C        -2.3462512100        8.2588899046       22.6061907781
  N        -2.2104830374        6.9304669122       22.6403679907
  O        -1.4310484274        5.1667772786       21.3310839202
  S        -2.8910010784        9.1468505189       24.0452157398
  C        -2.4452879983        6.1705703037       23.9076314584
  H        -2.7465566562        5.1587681304       23.5884832612
  H        -3.1683441047        6.7241420960       24.5405515097
  C        -1.1744327781        6.1034497060       24.7183598598
  H        -0.8948747840        5.1181064808       24.9294844568
  H        -1.3269663773        6.4630281608       25.8258535951
  H        -0.3945742730        6.5780503192       24.1176668856
