352
i =
  H        -1.9930394179       14.8140874620       14.9782619270
  C        -2.5642214657       14.3058079490       15.7202375938
  H        -3.4449111088       14.8643029552       15.9513882880
  C        -1.7151197747       14.2678337738       16.9761114459
  C        -3.0784985435       12.9577870987       15.2263635224
  C        -2.5694340460       14.3194429050       18.2505070630
  H        -1.1360563257       13.3315852558       16.9301712391
  H        -1.0406951278       15.0736588943       17.0266185246
  H        -3.0545194326       13.0617558931       14.1354850114
  H        -2.3824567119       12.1918089118       15.4956159466
  H        -4.1051623448       12.7843906296       15.4829551962
  C        -1.6894686876       14.0455480710       19.4788976697
  H        -3.4366945704       13.7102132396       18.1502691815
  H        -2.8955844123       15.3170037638       18.2789365928
  C        -2.3444377388       13.8700915875       20.8848993633
  H        -1.1666119438       13.1115886297       19.2813746131
  H        -0.8569203625       14.7082977643       19.6071019343
  C        -1.3870286109       13.2359392949       21.9232844439
  H        -3.1858593608       13.2657618992       20.7645078865
  H        -2.8926213981       14.8148293034       21.2606848996
  C        -0.3039614343       14.1690088031       22.3194720336
  H        -1.9772579023       12.8802515561       22.7738784944
  H        -1.0022914473       12.3921196787       21.3681244389
  C         0.8432846298       13.4346035496       23.1251825359
  H         0.1858238285       14.4986892099       21.4757629804
  H        -0.6493840284       15.1146719294       22.7885120566
  C         1.2448574218       12.0835505137       22.4772035444
  C         0.3225205554       12.7046364229       24.3450247048
  C         2.1124479935       14.2649934354       23.3081190068
  C         1.0696485732       10.9831674172       23.3100816910
  C         1.6673761544       11.7021805539       21.1812885962
  C         0.4472988789       11.3506580282       24.4554561217
  C        -0.2762561233       13.2644340150       25.5101782506
  H         2.2546608691       14.9322114046       22.4183645476
  H         1.9164601801       14.9500711187       24.1541685497
  C         3.3856644152       13.3622020330       23.5477346855
  S         1.5490686207        9.5287403696       22.6070523183
  C         1.8845032835       10.3180562613       21.1287560241
  H         1.7639264226       12.3854938922       20.3402639769
  C        -0.0175922910       10.6788390795       25.6045620138
  H        -0.2575759929       14.3179075070       25.6499451566
  C        -0.6763941350       12.6223927118       26.6882759518
  H         3.7452343744       12.9060317602       22.6159863908
  H         3.1630007012       12.5437694907       24.2197483886
  C         4.6683532169       14.1118577777       24.0805455244
  C         2.3787432340        9.6037419815       19.8799203230
  C        -0.5501653026       11.2830285861       26.7713926339
  H         0.2268608275        9.6852834429       25.6248125428
  C        -1.1386503477       13.0614209411       27.9310429456
  H         5.2654631376       13.3157052460       24.5206528863
  H         4.3103422401       14.6947423613       24.8837598732
  C         5.3698021769       14.9447947219       22.9335925273
  C         2.3362592654        8.1832113487       19.7122127657
  C         2.9609816029       10.4755355208       18.7831503562
  C        -0.9838073344       10.6041027638       28.0585312589
  C        -1.2554669997       11.9873211830       28.6994661305
  S        -1.4228608295       14.5960072275       28.6148311034
  H         5.8504738644       15.7767404087       23.4721031084
  H         4.8184083556       15.5887864212       22.1936690013
  C         6.4146995585       14.1651004866       22.0569221937
  N         2.0573567026        7.1615442183       20.6314488763
  C         2.7169351332        7.6809077970       18.5067151454
  C         3.1702614696        9.9789038749       17.5524784156
  H         3.0406806886       11.5156401743       18.9077783599
  C         0.1179840220        9.7184879855       28.7928625793
  C        -2.2954280564        9.8198177942       27.8258868424
  C        -1.5196593878       12.4871975484       29.9993500566
  C        -1.6163862656       13.8689020682       30.1230852810
  H         7.5040256367       14.6017053434       22.1243552072
  H         6.3170013995       13.0481259508       22.2816122331
  C         6.1040892162       14.2277355300       20.4715852601
  S         2.0199505463        5.7284932349       19.8027970878
  N         2.4926251401        6.2993504860       18.3674043676
  C         3.1540518433        8.4549690945       17.3542699137
  H         3.3227988683       10.6388150044       16.8091124039
  H         0.4758598133        8.9352075346       28.1796964067
  H        -0.3088216128        9.2465522919       29.6317297564
  C         1.3182553306       10.5401930135       29.2404570128
  H        -2.1334448600        8.9628847970       27.1301379950
  H        -2.6467927919        9.3433058485       28.7454043847
  C        -3.5263584229       10.6146940684       27.3627424680
  H        -1.6825550288       11.7896939936       30.8026925266
  C        -1.8443099748       14.6525298395       31.3855883052
  H         6.0738331448       15.2123420308       20.0731118293
  H         5.0791289423       13.8185323599       20.2935007601
  C         7.0387260692       13.3549604124       19.7036027788
  C         3.2903887928        7.8035684533       16.0765847169
  H         1.4478605392       11.2553198565       28.4469637826
  H         1.0842333264       11.0630826269       30.1895163246
  C         2.4991628143        9.7089508562       29.6431487993
  H        -3.3852174677       11.2294329192       26.5065357011
  H        -3.8843716984       11.2989512361       28.0441280899
  C        -4.6954059844        9.7194098012       26.9713034970
  C        -2.0550619758       16.0911192316       31.5251095597
  C        -2.0214326370       13.8546740385       32.6580050090
  H         8.1044104065       13.6534780127       19.7557335532
  H         6.8069662386       12.3222790169       20.1372529935
  C         6.5810603587       13.2260626414       18.2276662972
  H         3.2305581821        6.7503102181       16.2014982456
  C         3.4745752753        8.1561093048       14.7904725212
  H         2.6488848579        9.1813438303       28.6843209605
  H         2.2619707269        8.9679350417       30.3704457581
  C         3.7055504877       10.5627105881       30.1967527753
  H        -4.3476440690        8.7968992522       26.4774519514
  H        -5.1912686315        9.4998753741       27.9309037480
  C        -5.8475643387       10.2299197296       26.0566620498
  N        -2.0599186136       16.9716713669       30.4391248735
  C        -2.4188216002       16.7518657388       32.6882446670
  C        -2.3772762276       14.5890755924       33.7819306737
  H        -1.8718199970       12.7633689621       32.7107801418
  H         7.4267396567       12.7980787925       17.6789070289
  H         5.7034918360       12.7040779412       18.0525327832
  H         6.5081764361       14.1632274096       17.6948155619
  S         3.9298818799        9.7147398216       14.2952981833
  C         3.4511286051        7.1208554543       13.6582893035
  H         3.7340712137       11.4621110249       29.6236094570
  H         3.3971085615       10.7957794781       31.1683563011
  C         5.1272258119        9.8109689747       30.2290160098
  H        -5.6800109371        9.8790822169       25.0734623659
  H        -5.7858510302       11.3752746850       25.9803718577
  C        -7.2844428263        9.7891400955       26.5195481359
  S        -2.3710256404       18.4740568997       30.9229927892
  N        -2.5324849999       18.1512379942       32.4869677180
  C        -2.6811112844       16.0364061300       33.8218529585
  H        -2.5260744599       13.9750332596       34.6744028976
  C         4.1368946166        9.0298978167       12.7252514832
  N         3.9049915745        7.7097400224       12.6130359213
  O         3.1245436282        5.8710226350       13.7783943719
  H         5.5866091163       10.3747654199       31.0012050586
  H         5.7474672781       10.0305373445       29.3942602868
  C         4.8972095225        8.3087769457       30.5240269587
  H        -7.2940693476        8.6892659288       26.5126752335
  H        -7.4261228113       10.1960683650       27.5308708499
  C        -8.2460221142       10.3822459637       25.4732732128
  C        -2.9310047596       16.7398615290       35.0283036677
  S         4.4089838050       10.0103534613       11.2513876563
  C         3.8211745609        6.9738176406       11.3656313441
  H         4.3057230705        8.2637603107       31.4612327447
  H         4.3115822043        7.8005882863       29.7307798423
  C         6.2018620423        7.6827632520       30.8325518291
  H        -8.0238419881        9.8058554400       24.5160579359
  H        -7.9779227515       11.4549485309       25.1616815233
  C        -9.7101433505       10.2799245818       25.9373158981
  H        -2.6844384884       17.7413645816       34.9060362240
  C        -3.3017103708       16.2783985233       36.2617817014
  H         4.5408655729        7.3560079286       10.6930353139
  H         3.9445157129        5.8941929325       11.5774607011
  C         2.3436560526        6.8142714593       10.8407118035
  H         6.2334319139        6.6211332935       31.0469365139
  H         6.6977266777        8.2431168963       31.6303478359
  C         7.1922949581        7.6615425624       29.6322059169
  H       -10.3684135914       10.3052229834       25.0140607481
  H        -9.8982289851        9.3035533697       26.3402914970
  C        -9.8900601456       11.3336242526       27.1285808580
  S        -3.8528624086       14.7070489917       36.7507461106
  C        -3.4188679372       17.2796744029       37.3611245728
  H         2.2750070583        6.2150848553        9.9089281219
  H         1.5781529988        6.5510242646       11.5776766251
  H         2.0877968311        7.7454548536       10.3876156995
  H         7.8298943599        6.8199659606       29.8386031026
  H         7.7383514023        8.5622145427       29.5165710142
  H         6.7097803733        7.5057256704       28.6450506730
  H        -9.5777688485       10.7692430911       28.0025892034
  H       -10.9971346393       11.5727108255       27.2854281428
  H        -9.4434290480       12.3115392092       26.8389022963
  C        -4.0070999045       15.3484756916       38.3867530277
  N        -3.7847696548       16.6968706389       38.5162863581
  O        -2.8820589025       18.3457384241       37.1747151498
  S        -4.8844148740       14.5093387854       39.6596942409
  C        -3.7531224770       17.4957397995       39.7483190249
  H        -3.8701338908       18.6181302747       39.4982934269
  H        -4.6811362034       17.2995508847       40.3275654557
  C        -2.4569459360       17.3090412959       40.6382369657
  H        -2.1436765360       18.2457357944       41.1841636859
  H        -2.4650304885       16.6142234784       41.4464659175
  H        -1.6148506235       17.0597674432       40.0581176735
  H         7.4125118864       10.9624359974        3.5622871197
  C         8.3063262122       10.3488822934        3.7490126825
  H         7.6990633622        9.4158195891        3.8110391155
  C         8.9042937451       10.5794757593        5.0700518696
  C         9.3119250690       10.3426313260        2.6057901997
  C         7.9508308046       10.9475463678        6.2572945821
  H         9.5426659497        9.6967601846        5.2324851522
  H         9.5697276076       11.4032464554        4.9915561091
  H        10.1952322663        9.8528179137        3.0167023488
  H         9.6675870613       11.2799525069        2.4054748463
  H         8.9818346155        9.8114893338        1.6939412440
  C         7.1550379646        9.7001005315        6.6422031895
  H         8.5947251534       11.3561756848        7.0101432308
  H         7.2587843034       11.7036086393        5.8961772744
  C         6.3089131008        9.7901813111        7.8823452277
  H         7.8507650420        8.8595818719        6.6996405283
  H         6.3974818653        9.3229854532        5.9622214446
  C         5.0906830236       10.7096246479        7.7542348818
  H         7.0269301821       10.0931426258        8.6946092971
  H         5.9903046302        8.7197832298        8.1699956670
  C         3.8533444888       10.0458084532        7.2719513063
  H         4.9929184004       11.2972603206        8.6755765389
  H         5.3975405220       11.3959509790        6.9887181166
  C         2.5975654714       10.9922009644        7.0916867980
  H         3.6410983974        9.1336051786        7.8680974662
  H         4.1070207290        9.6891231494        6.2643984885
  C         2.8904266571       12.3094669495        6.3736528737
  C         2.1322235653       11.6813730299        8.3271592469
  C         1.4247677920       10.3108461330        6.3472589628
  C         2.6385189842       13.3829734951        7.1745486869
  C         3.3602043321       12.7677706016        5.1063443855
  C         2.1480263439       13.0280149531        8.4046919557
  C         1.6568549331       11.1040485241        9.5134416302
  H         1.8034308575        9.9347887737        5.4244032280
  H         1.1332973120        9.4129270482        6.9090418001
  C         0.2108651833       11.1455467674        5.9471273009
  S         3.1779704665       14.9388285063        6.4748010922
  C         3.5933305121       14.0707993751        5.0341650257
  H         3.4293250088       12.1214772498        4.2997995187
  C         1.7221611117       13.7179066091        9.5285801718
  H         1.6156190048       10.0109337805        9.5030379907
  C         1.3139943856       11.7526334146       10.6084707222
  H         0.3311043904       12.1902523070        5.5961969679
  H        -0.3518528686       11.1967616190        6.8378743221
  C        -0.7446640230       10.5610108224        4.8258352655
  C         3.9850762585       14.7488355431        3.7241223270
  C         1.3054839898       13.1061319607       10.6563872062
  H         1.5611939194       14.7487708748        9.5705258203
  C         0.9454348818       11.3684286399       11.8758946070
  H        -1.7141095973       11.0840093699        4.9170143498
  H        -0.7761091612        9.4302483579        5.0092505821
  C        -0.1775165857       10.8364774979        3.5073632771
  C         4.1755903294       16.1054358199        3.4552432962
  C         4.4459147419       13.8439986898        2.6076473686
  C         0.9974272974       13.7746561693       11.9498242491
  C         0.7501942198       12.4790793413       12.6859174458
  S         0.8174116938        9.8340993390       12.5998413026
  H         0.9078332955       10.9724960674        3.6193748204
  H        -0.5575331814       11.8587750440        3.2344493658
  C        -0.5076695750        9.7622888997        2.5471012434
  N         4.2007679508       17.1817257236        4.4792590172
  C         4.4448527426       16.6350381151        2.2051791836
  C         4.8206384540       14.4125396251        1.4504800542
  H         4.1831774097       12.8445636766        2.5538280947
  C        -0.3005727033       14.5520618320       11.8951550112
  C         2.1573803482       14.6122857345       12.5307765943
  C         0.4315289533       12.0536357358       14.0192269294
  C         0.5228721045       10.6788247635       14.1114440580
  H         0.1304788201        8.9063214175        2.8122906338
  H        -1.5226949476        9.5008344778        2.5735079487
  C        -0.0668770654       10.2474417787        1.1894804152
  S         4.2243565867       18.6147114117        3.6750542006
  N         4.5797871751       17.9809550593        2.2218195084
  C         4.8263758024       15.8447036585        1.1735165149
  H         5.1480766936       13.7424964686        0.6368903330
  H        -0.1673640054       15.3328706525       11.2337900025
  H        -0.5648142906       15.1825920889       12.7999394755
  C        -1.5731924292       13.8122733073       11.4869581994
  H         2.5729115374       15.3639577398       11.8445884864
  H         1.7391534499       15.2905049956       13.3585130920
  C         3.3609548010       13.8144474218       12.9879368978
  H         0.3603961951       12.7549469431       14.8674151923
  C         0.1889499137        9.9237622595       15.3582008632
  H         0.4462888753        9.3851304808        0.7120163826
  H         0.5496688290       11.0553651517        1.0639589440
  C        -1.3433557286       10.3295206591        0.3375959825
  C         5.0186043314       16.4794192200       -0.1309594571
  H        -1.3996371334       13.4411693297       10.4758157299
  H        -1.6977596794       12.9802835933       12.1309743685
  C        -2.9789206366       14.5261280130       11.6512337157
  H         3.6731475561       13.1639214882       12.2286864207
  H         2.8384327184       13.1879234413       13.7599211767
  C         4.4654261299       14.5154318465       13.6625597694
  C        -0.0565850337        8.5331022785       15.4691146917
  C        -0.1242773346       10.6643756760       16.6371785178
  H        -1.8467480222        9.3982281324        0.3618379786
  H        -1.9486508450       11.0125210007        0.8592770937
  C        -1.2340785232       10.9142532332       -1.0461323628
  H         4.9704185508       17.4991883219       -0.0480435755
  C         5.2626007458       15.9389946363       -1.3869777615
  H        -2.9001154703       15.2531989784       10.8696188868
  H        -3.2666411258       14.9048176334       12.6204149973
  C        -4.2175268002       13.7334132580       11.1946128484
  H         4.7587775919       15.1779328000       12.8614750942
  H         4.1550262795       15.0406237499       14.5253996490
  C         5.6578533687       13.5616840411       14.0662956669
  N         0.0634938483        7.6380222913       14.4655544512
  C        -0.3881468701        7.8697516683       16.6375200020
  C        -0.6100826690        9.9928770461       17.7836150721
  H         0.1292042686       11.6939678979       16.7178568079
  H        -2.1311226551       11.0523387778       -1.5842287307
  H        -0.6500067070       10.0989385301       -1.4802168760
  H        -0.6128863250       11.7664128595       -1.0868416767
  S         5.6112109915       14.3150797636       -1.7929711116
  C         5.3365729792       16.9020942823       -2.5278212308
  H        -4.0568286908       12.6898716344       11.4259636291
  H        -5.0707924566       14.0458624968       11.6518242447
  C        -4.3778122673       13.8764071517        9.6185593596
  H         5.4624630210       12.6312234373       13.7057063346
  H         5.6291421499       13.3259737464       15.1537344522
  C         6.9941326583       14.1260279508       13.7089748549
  S         0.0692102249        6.1630455368       15.0233286148
  N        -0.4615038527        6.5199166501       16.4968176715
  C        -0.6739752826        8.4915404096       17.8300648502
  H        -0.7603668448       10.6161353272       18.6092020120
  C         5.7808160664       14.8590744818       -3.4665219039
  N         5.7117540229       16.2144623146       -3.6442277291
  O         5.2786767233       18.1497260504       -2.3995801807
  H        -4.5346053369       14.9151631120        9.3455969616
  H        -3.4471234313       13.6600347957        9.1250714051
  C        -5.4568185907       13.0635858875        8.9662966320
  H         7.7226167681       13.3863153588       14.0362589831
  H         7.1060916352       14.4831015899       12.6578883365
  C         7.4462948865       15.2431437451       14.6521181226
  C        -0.9631966848        7.7991290098       19.0170391921
  S         6.0372150393       13.8773705363       -4.8194610503
  C         5.8048049565       16.8830573294       -4.9028072804
  H        -5.0675535288       12.6713502374        8.0175272562
  H        -5.7190086529       12.2273952492        9.5972985817
  C        -6.7789386795       13.7426865968        8.7386007537
  H         8.5010963395       15.0559596465       14.5837359399
  H         7.1274508122       14.9852330903       15.6793316744
  C         7.0171543850       16.6518680418       14.4823973193
  H        -0.5534389173        6.7822732137       19.1083609183
  C        -1.4737930994        8.1986087167       20.2030324064
  H         6.6619087906       16.4154019797       -5.4063623031
  H         6.0560337730       17.9848192971       -4.7853345814
  C         4.5165237732       16.7951104733       -5.7332538337
  H        -7.2731981670       13.0584146422        8.0538956442
  H        -6.6442671339       14.6852008571        8.2380152097
  C        -7.6082162990       13.9734528110        9.9845960937
  H         6.8942648380       16.8135394467       13.4107510358
  H         6.0114007636       16.7015975666       14.9301993769
  C         8.0095698542       17.6284962331       15.0999175304
  S        -2.1609520578        9.6966418244       20.5944933112
  C        -1.5457851626        7.1928427787       21.2969012347
  H         4.5079070732       15.9485641444       -6.3463798486
  H         4.1617577617       17.6372250503       -6.2332505725
  H         3.6951595637       16.5349329741       -5.0261406866
  H        -7.2972213344       14.9511727365       10.5769893846
  H        -8.6553650769       14.0424464966        9.8041306187
  H        -7.4277371341       13.1069410053       10.5224599925
  H         8.9361320813       17.1648974422       15.5351963906
  H         8.4352884527       18.4216803718       14.4572379463
  H         7.5378096347       18.2482233793       15.8671488785
  C        -2.5146380995        9.0765327954       22.1683846210
  N        -2.2526174142        7.7581434467       22.2980914478
  O        -0.9038220998        6.1771704430       21.3104943200
  S        -3.5707453045        9.7068595066       23.4015259231
  C        -2.2058491350        6.9646979779       23.5473904448
  H        -2.3988584183        5.9400460227       23.3824480144
  H        -3.0221806621        7.2194255761       24.2889852109
  C        -0.8513827857        7.1043631601       24.2218976211
  H        -0.1285998905        7.5463835993       23.4295526747
  H        -0.4265371867        6.1609824615       24.5792481471
  H        -0.7868206986        7.8432077570       25.0842039336
