352
i =
  H        -3.9455964070       14.4276323258       16.1419922883
  C        -3.3790032586       13.5015215568       16.0393335667
  H        -4.0073740578       12.7096021765       16.3289182034
  C        -2.1924689445       13.5157223932       17.0220759441
  C        -2.8674144387       13.2663297176       14.5912759831
  C        -2.7273965406       13.7177794639       18.4499589518
  H        -1.8154549635       12.4937084623       17.0332131594
  H        -1.4318804199       14.2809772151       16.7421096423
  H        -2.1098759189       14.0303490893       14.4621687221
  H        -2.5093732443       12.2343211923       14.4856726838
  H        -3.6429698494       13.4936293289       13.9402506969
  C        -1.7074091893       13.7243895984       19.6115045924
  H        -3.5510344252       13.0349101268       18.6845777398
  H        -3.1475582658       14.7015185516       18.6185533145
  C        -2.2493859085       13.5860346483       21.0577460561
  H        -1.0498754713       12.8935385898       19.4421317412
  H        -1.1111842803       14.6500769484       19.4482788498
  C        -1.3328678509       12.9619484298       22.1827641933
  H        -3.2510730447       13.0707411843       21.0416167557
  H        -2.3829686576       14.6211944784       21.3658736640
  C        -0.0286268296       13.8116461504       22.2813751492
  H        -1.8918597131       12.8886594959       23.1006704090
  H        -1.1040747686       11.9207214166       21.8649409382
  C         1.0876644010       13.2467954962       23.1016204664
  H         0.3669056447       14.1990284543       21.3486021185
  H        -0.3494090667       14.6626709937       22.9309501841
  C         1.4196956535       11.8783309467       22.4763466780
  C         0.7589528508       12.5434028314       24.3963909191
  C         2.2887456856       14.1587328581       23.0788858745
  C         1.3796703645       10.8020349193       23.3012707640
  C         1.8253589590       11.4495852904       21.1584624514
  C         0.8795023051       11.1868236390       24.5510803489
  C         0.3747396937       13.1394897138       25.6136966366
  H         2.4763359642       14.5002725194       22.0444550234
  H         2.1507869637       15.0581045078       23.7727995610
  C         3.4890091816       13.4750811821       23.5616258761
  S         1.9234067477        9.3259975042       22.5772985912
  C         2.0707041841       10.0938302365       21.0266856409
  H         2.0418623849       12.2261545018       20.4498802159
  C         0.5829398041       10.5759085782       25.6937975487
  H         0.1696616407       14.1957537571       25.4776132920
  C         0.0886106787       12.5533251832       26.7786691978
  H         3.6658693580       12.5384311552       22.9589127651
  H         3.2915844855       13.0567371477       24.5779777907
  C         4.7544866221       14.3183196334       23.8110829479
  C         2.6721879596        9.4515090533       19.8592532238
  C         0.2347997204       11.2045270434       26.8804661553
  H         0.6029444923        9.5051981071       25.7057847564
  C        -0.3382970021       12.9883805728       28.0407700724
  H         5.5140694455       13.7168498398       24.3821050550
  H         4.4982215597       15.1579872897       24.4872020442
  C         5.3737947024       14.9237033776       22.5149750579
  C         2.8115399801        8.0557480483       19.6351797852
  C         2.7725464097       10.2483965860       18.6097852273
  C        -0.2696714268       10.5053612248       28.1329656142
  C        -0.5661377753       11.8545227887       28.8448621777
  S        -0.6832286035       14.5330475607       28.7175113300
  H         6.0983919700       15.6427701849       22.7994578097
  H         4.5160563183       15.4564316209       21.9270876203
  C         6.1280153587       13.8173694780       21.8467015518
  N         2.6493209748        7.1770361452       20.6675889622
  C         3.1566313141        7.4673434504       18.4377511763
  C         3.2222473752        9.6857898975       17.4123007560
  H         2.5765690022       11.3264299415       18.5850729358
  C         0.9076351148        9.6754498639       28.8056715197
  C        -1.5489454766        9.7848249927       27.8075130013
  C        -1.0723694611       12.2861269145       30.0438232579
  C        -1.1246904501       13.6754393858       30.1527365018
  H         7.0131672342       13.5519698364       22.4087508548
  H         5.4402272898       12.9360219144       21.8162527638
  C         6.3570583705       13.9624665967       20.3880083998
  S         2.8817947887        5.7153529222       20.0764562828
  N         3.0716841050        6.0684789870       18.5061387525
  C         3.4689639609        8.2442342915       17.2582137439
  H         3.4066154457       10.3891301151       16.5822597935
  H         1.3226440659        8.9123294819       28.1835206243
  H         0.5669650590        9.1548683009       29.6893838234
  C         2.1707674185       10.4551137038       29.1899744014
  H        -1.4618177810        8.9799039623       27.0501759602
  H        -1.7843138160        9.1520735022       28.7021679951
  C        -2.8227913233       10.5456510951       27.3385467948
  H        -1.3338765310       11.5510416293       30.7901863466
  C        -1.5083685105       14.3912861478       31.4047581117
  H         6.2233771088       15.0463637714       20.1097162776
  H         5.5508063448       13.3354251751       19.8191155645
  C         7.8001427154       13.5415809470       19.9543343657
  C         3.6517434340        7.5821083798       16.0213344419
  H         2.7844403497       10.3348773653       28.2903179254
  H         2.0415842467       11.5038580313       29.3436788855
  C         2.8991646240        9.7539783119       30.3511288986
  H        -2.5032335043       11.0806155484       26.4806418263
  H        -3.1824170994       11.2307680143       28.1480220462
  C        -4.0672030108        9.6694032527       26.9499994012
  C        -1.5681212588       15.7760893201       31.6950124181
  C        -1.8201831343       13.5927837560       32.6013169546
  H         8.4823375255       14.3922903157       19.9938149779
  H         8.3827928345       12.9161074197       20.6439943395
  C         7.7803709159       13.0862625635       18.4859146862
  H         3.8030700543        6.4941736316       16.0655064801
  C         3.8545419592        8.0558108031       14.7315329682
  H         2.9062763552        8.7091565745       30.1602630127
  H         2.4061783795        9.8610256943       31.2982853441
  C         4.3757179529       10.1754540134       30.4259699903
  H        -3.9238820432        9.3283499258       25.9355130591
  H        -3.9790835127        8.7501480095       27.4774076528
  C        -5.3898464536       10.3808598411       27.0465373424
  N        -1.4613833814       16.7975793938       30.6544563458
  C        -1.8827884006       16.3759130531       32.9167954178
  C        -2.1454492724       14.1604612775       33.8162450019
  H        -1.9146572706       12.4861771833       32.5147034026
  H         6.7890574537       12.8953255448       18.0241008550
  H         8.2364660354       13.9667942500       17.9401656114
  H         8.4554602180       12.2446370355       18.2151932692
  S         3.9670364738        9.6517960146       14.2796591200
  C         4.0443525750        7.0612620329       13.6943533550
  H         4.4016053634       11.0942209504       29.8861330559
  H         4.7047805814       10.4427214418       31.4480612924
  C         5.1998969463        8.9896106759       29.8095495504
  H        -5.3342620804       11.3067631870       26.5305245156
  H        -5.5888608698       10.4992610698       28.1162875380
  C        -6.5743438206        9.5843876949       26.3820619326
  S        -1.4123184188       18.2807706476       31.3315492354
  N        -1.9324182895       17.8183891997       32.8101559840
  C        -2.1856468163       15.6187568392       34.0643455831
  H        -2.3357968513       13.5646531844       34.6124543159
  C         4.2416905738        9.0449689494       12.6251863840
  N         4.4195742031        7.7303682238       12.5790548682
  O         3.8950329503        5.8658395958       13.7799608818
  H         6.2261044568        9.2967841451       29.5425756478
  H         4.7049833270        8.7123487407       28.8971461567
  C         5.3034741892        7.7868578280       30.7706121145
  H        -6.1764332651        8.7319914645       25.7006635689
  H        -7.2031160336        9.0931864358       27.1058665316
  C        -7.4939343045       10.5663364677       25.6656733616
  C        -2.3526365382       16.3396354130       35.3043470015
  S         4.7597873770       10.0737903615       11.2903602504
  C         4.4290075765        6.9225068308       11.3235361939
  H         5.8172204471        8.1248589332       31.5907211881
  H         4.3750796590        7.4246756653       31.1259623303
  C         6.1761864753        6.6310427289       30.1684453955
  H        -6.9568074746       10.9887938871       24.7491796955
  H        -7.8034428414       11.4782606004       26.2534455746
  C        -8.8262051528        9.8611494338       25.2046630835
  H        -2.0465752897       17.4174445928       35.2770535027
  C        -2.8745484162       15.9170662536       36.5149556624
  H         4.8907343895        7.4081198747       10.4626187461
  H         4.8902977905        5.9538803560       11.4669137728
  C         3.0121146197        6.6283518355       10.8469305970
  H         7.1916057058        6.9156163814       29.9603690311
  H         5.7842822422        6.1599781463       29.2468935443
  C         6.4132550017        5.5652492743       31.2391046411
  H        -8.9776855196       10.0862700382       24.2013285467
  H        -8.5870195019        8.8134982769       25.1456271283
  C       -10.0618875654       10.0718528650       26.1130934025
  S        -3.5040411561       14.3237975302       36.8109842941
  C        -2.8655805326       16.8345285452       37.6626426465
  H         2.5463414862        7.5445550777       10.5183998709
  H         2.9645376085        5.9267444798       10.0192056177
  H         2.3391303651        6.2433234986       11.6225275675
  H         6.9935471651        4.6996575350       30.8393282029
  H         5.5193811992        5.1273277503       31.6805954987
  H         6.9699105541        5.9611008817       32.0424719549
  H       -10.3354820782       11.1118270880       26.0779738602
  H        -9.8735058250        9.8635038432       27.1525840898
  H       -10.8801685955        9.5127730680       25.7033375092
  C        -3.7871747001       14.9554375390       38.4550286764
  N        -3.5882790664       16.2699124648       38.6448383982
  O        -2.3571628108       17.9493703518       37.6330660864
  S        -4.7197643860       14.1154753607       39.6730368060
  C        -3.8038463057       16.9369130700       39.9154909504
  H        -3.8568981992       17.9605672557       39.6569672512
  H        -4.7185608938       16.5758617279       40.4045282829
  C        -2.6116930997       16.6870254263       40.8916732161
  H        -2.8753357961       16.5426380511       41.9132322434
  H        -1.9999043905       15.8779949007       40.4871417492
  H        -2.0319888632       17.5849541535       40.8402751531
  H         7.3714980633       10.4199560954        3.9712721102
  C         8.3021157928        9.8831168736        3.9040474371
  H         8.0259491594        8.8462044001        4.1150442217
  C         9.2945552257       10.3381975853        4.9687528367
  C         8.7762275663       10.0700378627        2.5384901088
  C         8.4952161287       10.6676652014        6.2719175198
  H        10.0326299805        9.5409227862        5.1495383126
  H         9.8156308957       11.2387472944        4.6535661831
  H         8.9477469924       11.1340202824        2.3654603416
  H         7.9973236881        9.7003463998        1.8136410912
  H         9.7007723739        9.5582376589        2.5863183676
  C         7.7424271129        9.4080147417        6.7553469417
  H         9.3009500058       11.0845902766        6.9035111978
  H         7.8564798550       11.5178383185        6.0648367743
  C         6.7776267800        9.6266526388        7.9264374173
  H         8.3698023216        8.4997088079        6.7722696209
  H         7.0669634550        9.0586846450        6.0352105494
  C         5.4683122904       10.3989890938        7.5208977827
  H         7.3357091728       10.1998520851        8.6133172444
  H         6.5933674174        8.6511661078        8.3898068550
  C         4.2468873660        9.6500122629        6.9950517769
  H         5.1404559138       11.0104606423        8.3006241636
  H         5.8662496829       11.1935537508        6.8604278477
  C         2.9955969883       10.5562699328        6.7207333624
  H         3.7943049333        8.9111242177        7.6371983736
  H         4.4484308484        9.1216962059        6.1029052563
  C         3.3232550106       11.8820773421        6.0374334631
  C         2.5679883500       11.2142693647        7.9520284905
  C         1.8003632152        9.8365795883        6.0659782340
  C         3.0821247424       12.9636586484        6.8708784320
  C         3.8209710772       12.3449204454        4.7957122405
  C         2.4718466194       12.5332032876        8.0238183234
  C         1.9528463645       10.6239300047        9.0758189476
  H         2.0578277664        9.6259361186        5.0654436661
  H         1.6651399002        8.9605414539        6.5715621770
  C         0.5264907387       10.7129657588        5.8384487251
  S         3.6672731947       14.5350238827        6.2737791516
  C         3.9295993773       13.7192440553        4.7609460178
  H         4.1714031179       11.6032899582        4.1099584756
  C         2.0777366978       13.1863112654        9.1981582289
  H         1.9579971664        9.5744296886        9.0403989384
  C         1.6163957764       11.2566996274       10.2621422047
  H         0.8442920653       11.6385456405        5.3960408185
  H         0.0575208061       11.0994129653        6.7087526699
  C        -0.5615046412       10.1143357208        4.9409427284
  C         4.5517659319       14.4332709861        3.5553889356
  C         1.6582468769       12.6019733607       10.3887393133
  H         2.1813214883       14.2777332614        9.3313335385
  C         1.1887893979       10.8662070939       11.5180909243
  H        -1.3843145935       10.7414880928        5.1445263437
  H        -0.8580051056        9.0790206558        5.1382363310
  C        -0.1624964817       10.2680142407        3.4445474765
  C         4.4738507489       15.7876100819        3.2749467600
  C         5.0281432400       13.6662470719        2.3961545577
  C         1.3227291199       13.2666145898       11.6696105911
  C         1.0042882519       11.9232567580       12.3668038483
  S         0.9194174608        9.2384052347       12.1988770874
  H         0.7039451643        9.5804935054        3.2310495567
  H         0.1230357339       11.3175245650        3.3618133599
  C        -1.3223014759        9.7878504243        2.4630906936
  N         4.1482384210       16.6679302450        4.2799480716
  C         4.7709626091       16.4309809247        2.0523129300
  C         5.2804112200       14.1991216209        1.1309626291
  H         5.1092071859       12.6052660327        2.4988364125
  C         0.0057666450       14.1317333897       11.5814952899
  C         2.5110214314       13.9012927577       12.3496720627
  C         0.4453485537       11.4760110433       13.5806715942
  C         0.4978702480       10.0569162894       13.6967585712
  H        -1.9978584911        9.0284867978        2.8563926647
  H        -2.0044383178       10.5538393579        2.1355896292
  C        -0.7492119996        9.2198276123        1.1993062946
  S         4.2821440431       18.2350040834        3.6686203579
  N         4.5864876946       17.7858099376        2.0811954994
  C         5.1133231348       15.6831262176        0.9244103305
  H         5.5279234717       13.4779926899        0.3500444353
  H         0.1690578850       14.9609327896       10.9153527597
  H        -0.1432012125       14.5982218140       12.5560085522
  C        -1.2491759071       13.3354484007       11.1235027070
  H         3.3836927580       13.7145352346       11.7569375862
  H         2.3943233573       14.9820498382       12.2255579334
  C         2.6320749905       13.6105822324       13.8505311634
  H         0.3155928525       12.1446553779       14.3855864195
  C         0.3870507753        9.3161617539       15.0031035078
  H        -1.3147309890        8.4716171101        0.6558323522
  H         0.0534737498        8.5410077332        1.5687936194
  C        -0.1606070534       10.2512471503        0.1667279012
  C         5.3188230648       16.3477923216       -0.3315915725
  H        -1.0594943650       12.6415911536       10.2840983866
  H        -1.6059939438       12.6129027267       11.8434350626
  C        -2.3905244424       14.2589048688       10.7226573208
  H         2.6460125581       12.5344170373       14.1535951122
  H         1.6915058703       13.9484370537       14.3660640364
  C         3.8204984270       14.4079263400       14.3640517448
  C         0.4260972735        7.8745014249       15.2084825698
  C         0.0941278404       10.0621085115       16.2344256247
  H         0.2059240857       11.2116784998        0.5978462020
  H         0.8086940652        9.8199888259       -0.0649836597
  C        -0.9724991795       10.3380970772       -1.1229700872
  H         4.9514306558       17.3671266443       -0.3256395104
  C         5.4672336266       15.8810808361       -1.6048395374
  H        -2.0343643798       14.9695644145       10.0070992484
  H        -2.5973499625       14.7348568159       11.7216647067
  C        -3.5086655091       13.3870383145       10.1286568345
  H         3.8030349024       15.4863559592       14.0704444705
  H         3.6925509154       14.3715910494       15.5003057508
  C         5.2019888219       13.7310987418       14.0178753976
  N         0.5714644795        6.8644418742       14.2341195646
  C         0.0899711553        7.2453498937       16.4391393692
  C        -0.0400267574        9.4519338891       17.4645952905
  H         0.1021841959       11.1374253816       16.2383606835
  H        -1.9672196894       10.5189284074       -0.7381945723
  H        -0.9536185174        9.3436240819       -1.5808684445
  H        -0.5978062625       11.0519428061       -1.9275832508
  S         5.8154803321       14.2515500788       -2.0649288944
  C         5.4598294820       16.8249159046       -2.7859638602
  H        -3.1208876100       12.9581948546        9.2330824719
  H        -3.6018556304       12.5768277037       10.8201449523
  C        -4.8269964285       14.1000499555        9.8934271207
  H         5.1668335404       13.2081479741       13.0861928136
  H         5.2991560898       13.0146955087       14.7993400627
  C         6.2459206755       14.6767267770       14.0071185845
  S         0.7843391174        5.4116087309       14.9770764525
  N         0.2063993328        5.8554683668       16.3903321794
  C        -0.2033476320        7.9851310942       17.6181131618
  H        -0.0330555492       10.0335021472       18.3390099281
  C         5.9151277808       14.8286925809       -3.7035592651
  N         5.8475950171       16.1914194790       -3.8523559810
  O         5.3167900788       18.0257033328       -2.6982227627
  H        -5.2615477887       14.3309916983       10.8610039487
  H        -4.6797760039       15.0306906900        9.3222048088
  C        -5.7642265859       13.1504854893        9.0410402580
  H         7.2211221173       14.2355265224       13.7884256914
  H         5.9598002019       15.3310545580       13.1566427595
  C         6.3699848833       15.5429479757       15.2568998482
  C        -0.5080872983        7.2832885842       18.7967101303
  S         6.3378061878       13.8902682259       -5.1473709682
  C         5.8186568579       16.8172661197       -5.1890648332
  H        -5.3380654408       12.8865739401        8.0743674227
  H        -5.8581895932       12.2141815006        9.5684545280
  C        -7.1542424796       13.7279046164        8.7787917033
  H         6.2891230094       14.9016373519       16.1473582803
  H         5.5569143408       16.1695762861       15.3739257163
  C         7.5904508382       16.5247901794       15.3418311785
  H        -0.0871286510        6.3221886388       18.8074702627
  C        -1.0895940185        7.6920282386       20.0279722242
  H         6.5581094331       16.4945351961       -5.9141709436
  H         6.2253190384       17.8360569962       -5.0700949172
  C         4.3581863273       16.7569672886       -5.8045521655
  H        -7.5998337281       13.4555498403        7.8298893327
  H        -7.2037974968       14.7900464954        8.6918833129
  C        -8.1460296898       13.4430212713        9.9434471882
  H         7.2890678493       17.1258408724       16.2154376596
  H         8.4154720847       15.7959680633       15.6789544067
  C         7.8473335565       17.2656862260       14.0603222540
  S        -1.5206147156        9.3027691004       20.5583899464
  C        -1.3161917903        6.7033051176       21.0604702768
  H         3.8926427284       17.6302472144       -5.5272891011
  H         3.6358926953       15.9073345050       -5.5105988779
  H         4.3306138275       16.8542805520       -6.8447214970
  H        -8.8764971602       14.2027232526        9.9586360170
  H        -8.6993026029       12.5250105389        9.6181671157
  H        -7.7158793129       13.2515516925       10.8945652103
  H         6.9538448832       17.7980418839       13.8029133601
  H         8.6082851675       18.0169054956       14.2689848130
  H         8.1617750028       16.6615725339       13.1761944382
  C        -2.1066279914        8.6267945968       22.0511812878
  N        -1.8870955624        7.2935466357       22.1231661277
  O        -1.0293295163        5.4831509807       20.9796638028
  S        -2.6297939723        9.6053420256       23.5061720780
  C        -2.1544213597        6.6298286088       23.3822481079
  H        -2.2657922891        5.5575901519       23.2715865511
  H        -3.0325117599        7.0681305450       23.8418863351
  C        -0.9043983498        6.7636094826       24.2836134159
  H        -0.6405303705        5.7493429981       24.6658791549
  H        -0.9840983233        7.4464495333       25.0352100084
  H        -0.1267446303        7.0953546859       23.6082623675
