352
i =
  H        -3.3653721462       12.9770188580       16.2713251269
  C        -2.5015341768       13.6261394773       16.2648432847
  H        -1.5332582402       13.0622284939       16.5363423674
  C        -2.8239903527       14.6729314409       17.2947004495
  C        -2.2981600210       14.2540941348       14.8348664563
  C        -3.2531075445       14.1810651266       18.6343055857
  H        -1.9342318744       15.2714082317       17.3946975179
  H        -3.5576274505       15.4081166609       16.9254412159
  H        -1.9755913276       13.4461086183       14.1952708099
  H        -3.2724357054       14.6337736834       14.4144239541
  H        -1.5414543379       15.0139894263       14.8642741031
  C        -1.9709044701       13.7890641904       19.4472316413
  H        -4.0810370201       13.3968329137       18.6314274405
  H        -3.6314377718       15.0859246056       19.1384978450
  C        -2.2532893701       13.6511694611       20.9809050994
  H        -1.4991854183       12.8804387087       19.0032985655
  H        -1.3501771922       14.6169395656       19.2327001426
  C        -1.1636269478       12.9939166532       21.8320182580
  H        -3.1643218842       13.0330221209       21.0852973167
  H        -2.4489733508       14.6819961164       21.4694426594
  C        -0.0692677128       13.8820247982       22.2479986198
  H        -1.6024687242       12.5929801332       22.7471755727
  H        -0.7954429858       12.1372037867       21.2376415642
  C         1.0596974775       13.1888628662       22.9904524509
  H         0.3693153113       14.2258211821       21.2404704768
  H        -0.3355620461       14.7259411893       22.7813473329
  C         1.4588622192       11.8803721694       22.3069159012
  C         0.4856067911       12.4903969317       24.1947807977
  C         2.1798511336       14.1945090329       23.3136813286
  C         1.1148465757       10.7500876371       23.0557796920
  C         1.9944255811       11.5205331933       21.0721563087
  C         0.6309830497       11.1263477972       24.2705202370
  C        -0.0835308996       13.0562991931       25.3067828625
  H         2.5602334164       14.7503798954       22.3627168614
  H         1.8241945908       14.9815528814       24.0061225944
  C         3.3864217804       13.4874736639       23.9066546440
  S         1.4687706974        9.2450721623       22.3151341908
  C         1.9952151024       10.1452613554       20.8892453224
  H         2.2370748641       12.2853535291       20.3951693387
  C         0.1925223117       10.4932018670       25.4202392757
  H        -0.2321540877       14.1193707715       25.3844315686
  C        -0.3758675740       12.4724230072       26.4888152153
  H         3.7325825240       12.8041801320       23.1957020426
  H         3.1274910898       12.8796138285       24.7392888262
  C         4.4886615376       14.3695156816       24.3610768104
  C         2.4361364241        9.4431940728       19.6619666731
  C        -0.3793551830       11.1058748245       26.5582852439
  H         0.2346886946        9.4509183741       25.4848054139
  C        -0.7522528563       12.8360905530       27.7490640636
  H         5.1267559110       13.7502091522       25.0417006891
  H         4.1791691707       15.2498377621       24.9460976830
  C         5.3907455622       14.8052264202       23.2009839333
  C         2.4113329004        8.0225555855       19.4067484619
  C         2.8378969847       10.2729912065       18.5206165382
  C        -0.6842706968       10.3834618894       27.9251734108
  C        -0.9498923128       11.7361265430       28.5882779637
  S        -1.0085816512       14.2929419152       28.4810877693
  H         6.0404672783       15.5969931390       23.4939247520
  H         4.8019885356       15.4045287394       22.5024206482
  C         6.1510596413       13.7663757151       22.3524860688
  N         1.8648171871        7.0497639130       20.2668179007
  C         2.6915793601        7.4569030160       18.1834073895
  C         3.2161165874        9.7131771753       17.3420169945
  H         3.1780358565       11.2690991471       18.6876427845
  C         0.5758649012        9.7024322144       28.4851946631
  C        -1.9890156369        9.4753116141       27.7650430420
  C        -1.1914040541       12.1516944405       29.9395060093
  C        -1.2647053523       13.5242708978       30.0442893056
  H         7.0294486890       14.2791852742       22.0261026085
  H         6.3243516060       12.8930872438       22.9013520856
  C         5.3385633611       13.3357319780       21.0856539644
  S         2.0879782255        5.5783135076       19.5827411644
  N         2.5219902677        6.0810710086       18.1253503879
  C         3.0417620845        8.2948949459       17.0601875378
  H         3.6109980118       10.4389249677       16.6608027715
  H         1.0331575378        9.1569196361       27.7196637389
  H         0.2701563574        8.9560831402       29.1746267105
  C         1.6500690107       10.6389588733       29.0489752527
  H        -1.8135758160        8.5388634364       27.2132628419
  H        -2.2587218262        9.1251353278       28.7230396789
  C        -3.3123938650       10.1867214822       27.3236652889
  H        -1.3122391555       11.3267391134       30.7558923278
  C        -1.6110019530       14.3550675465       31.2427985226
  H         4.3891392732       13.8442276870       20.9902084061
  H         5.1108927937       12.3207697152       21.1372688680
  C         6.0811014132       13.7958964693       19.8036437935
  C         3.1227063017        7.7655376584       15.7456212904
  H         1.8939597927       11.2377160105       28.1689439170
  H         1.3495462966       11.2043557526       29.9543774752
  C         2.9306320234        9.9625794186       29.5622187752
  H        -3.3649345241       10.8163489869       26.4581697812
  H        -3.7872432535       10.7101761413       28.1145309309
  C        -4.3586784080        9.0880384594       27.0910143100
  C        -1.7444406592       15.7457518848       31.3659387564
  C        -1.7717483345       13.6355831338       32.5394685890
  H         5.4887801307       13.5216876187       18.9051079025
  H         6.2510166406       14.9122403846       19.7771946661
  C         7.4049716328       13.1230728406       19.6748333665
  H         2.9767597191        6.6563509767       15.7907244138
  C         3.5503811130        8.2459821721       14.4961366421
  H         3.4627494721        9.5056342490       28.7278488700
  H         2.6867096975        9.1476367605       30.2092375309
  C         3.8805524490       10.9141854388       30.3012487490
  H        -4.1068227385        8.6663910475       26.1208297773
  H        -4.2767607819        8.3280215612       27.8514499926
  C        -5.7761750231        9.5365835135       26.8565721309
  N        -1.3421033884       16.6250200656       30.3822295324
  C        -2.1371941606       16.4535099468       32.4792563033
  C        -2.0895855442       14.3216293533       33.6763349908
  H        -1.6674531431       12.5962452140       32.5538512337
  H         8.2398021911       13.7356767853       20.0619920221
  H         7.3340965145       12.1609573077       20.1779629591
  H         7.5252626165       12.9265059579       18.6155055556
  S         4.0227957804        9.8844677803       14.0890693455
  C         3.4903299987        7.2873515916       13.3257203060
  H         4.0843114704       11.7083109495       29.6068741952
  H         3.3886044857       11.4336775285       31.1222887381
  C         5.2377514098       10.2547170758       30.5944954047
  H        -5.9197489865       10.4672707689       27.5141150331
  H        -6.5365964538        8.8170516869       27.1541460659
  C        -6.0089098526       10.0480155790       25.4488027948
  S        -1.6981185221       18.2025069139       30.8558006103
  N        -2.1792339721       17.8284358552       32.3052716055
  C        -2.3180355553       15.7726767531       33.6985892932
  H        -2.3256361205       13.8186893956       34.6407642654
  C         4.1729407024        9.2608078267       12.4143784339
  N         3.9485367601        7.9050844018       12.2110664492
  O         3.1656859966        6.1491127598       13.4238735244
  H         5.8933270415       11.0574788648       31.0405719985
  H         5.7220448694        9.9891484597       29.6844278067
  C         5.2020823666        9.0679497779       31.5627337893
  H        -5.3390150584       10.8773017992       25.2535314365
  H        -5.7907515022        9.2496824338       24.7371903897
  C        -7.4716882598       10.4832285641       25.4029560480
  C        -2.5374319705       16.5302012330       34.8493370363
  S         4.5193479256       10.2932030857       11.0422612195
  C         3.8800926013        7.3371172975       10.8587736297
  H         6.1692506280        9.1604322668       32.1435692724
  H         4.3434623835        9.2290683374       32.2669204541
  C         5.0187743206        7.7384811062       30.8276707175
  H        -7.5217131825       10.9368764365       24.4380725495
  H        -7.8037342545       11.2086581933       26.1158275932
  C        -8.4093486842        9.2927977070       25.3776800388
  H        -2.2633397646       17.5676903703       34.6854478794
  C        -2.9054333544       16.2011269014       36.1119889557
  H         4.7416865538        7.6271729275       10.1662199253
  H         3.9965716865        6.2343477340       10.9958108935
  C         2.5651821171        7.6379945745       10.1500387386
  H         5.2575097267        7.9234096892       29.7351814558
  H         4.0607710860        7.3410181223       30.7465472059
  C         5.9841473909        6.6298288384       31.3069808875
  H        -7.9870981435        8.5457950275       24.6776250377
  H        -8.5239033206        8.6952698466       26.2908079884
  C        -9.7325120828        9.7167998010       24.8495375461
  S        -3.3830336906       14.6438444395       36.6744266628
  C        -3.1457106606       17.2980146718       37.0793147345
  H         2.7001671965        7.7590174778        9.0541155831
  H         1.7460786302        7.0009263628       10.2848943503
  H         2.1636879522        8.5776468951       10.5541693276
  H         5.8750184336        6.5857043985       32.4048325879
  H         7.0260844757        6.8248017614       30.9741489019
  H         5.7438247159        5.7091520721       30.7833580962
  H        -9.8863375569       10.7718263173       24.8659728207
  H       -10.5194191488        9.3901422634       25.4656790234
  H        -9.9104066976        9.4159087753       23.8239129192
  C        -3.8159299543       15.4576165075       38.1440125759
  N        -3.8054777645       16.8444480155       38.0823942209
  O        -2.9747547367       18.4810910982       36.7811902473
  S        -4.5621562977       14.6244502838       39.4322576203
  C        -4.2047794402       17.6449744745       39.2303665830
  H        -4.3790237138       18.7379882144       38.8583028334
  H        -5.1638789942       17.2419921187       39.6975934414
  C        -3.0576238880       17.7101769888       40.2224430418
  H        -2.8667100024       18.6650145476       40.6947758287
  H        -3.1922866982       17.1670313819       41.2131359135
  H        -2.1934822315       17.2552631979       39.6998546209
  H         6.9918231793       11.4391773169        3.0594051441
  C         7.5524559702       10.5453405571        3.2802115147
  H         6.7027597644        9.9086608267        3.3086922146
  C         8.4789063085       10.5559489281        4.5240892639
  C         8.3887004731       10.3528123370        2.1311195457
  C         7.5408406220       10.9652536865        5.6979305031
  H         8.9564501167        9.6200332745        4.8202550911
  H         9.2396826482       11.3311218092        4.2722263849
  H         9.3635014333       10.8681706054        2.2186184552
  H         7.8012026594       10.5720786855        1.1721696126
  H         8.6408999132        9.2896870984        2.1738803420
  C         6.9062970433        9.7622859760        6.4242198618
  H         8.0289389629       11.6621681542        6.3881421395
  H         6.8284690701       11.5941044641        5.2222154743
  C         6.1014980496       10.0861062202        7.6829231645
  H         7.7146887810        9.1253511420        6.7562232711
  H         6.2890209505        9.2805594181        5.6377747944
  C         4.9052913668       10.9648440178        7.4955389113
  H         6.7485362298       10.6349216171        8.3946675967
  H         5.7634466983        9.1770623256        8.1569814161
  C         3.6594228606       10.1704316460        7.0140501769
  H         4.5952035492       11.4588211552        8.3735819826
  H         5.1747866483       11.7621902708        6.7675492542
  C         2.3588587509       11.1122751000        6.9033493896
  H         3.4230788240        9.3241137326        7.6921337102
  H         3.9518110974        9.8440582763        5.9911977456
  C         2.7738024651       12.4168873860        6.2146009548
  C         1.9929287207       11.8146874880        8.1536942067
  C         1.1604135549       10.3665577892        6.2018070312
  C         2.5961267371       13.4872004749        7.0360552478
  C         3.3493490954       12.7640822333        4.9956208509
  C         2.1764844308       13.1526464054        8.2836642420
  C         1.7175403843       11.2161131740        9.3590675931
  H         1.6225645777       10.1109948740        5.2650941852
  H         0.8947567442        9.5502613376        6.8599392308
  C         0.0636402999       11.3654717295        5.7448672616
  S         3.0384632852       14.9555286475        6.2637165852
  C         3.4716271931       14.1265346062        4.8038659632
  H         3.4068006146       11.9252014811        4.2325625432
  C         1.9230067326       13.7948737297        9.4312752000
  H         1.8135877860       10.2079624123        9.3556958160
  C         1.4462878743       11.8517948085       10.5141944090
  H         0.4186918024       12.0520837722        4.9966398729
  H        -0.4310268265       11.9180075939        6.5723459776
  C        -1.0318022499       10.5465099851        4.9972855831
  C         3.8318053680       14.7640554101        3.5003850482
  C         1.4544422976       13.1814200525       10.6070851304
  H         2.2092493197       14.8484331389        9.4731798273
  C         1.1049654140       11.4230402584       11.7778474137
  H        -1.9323551360       11.1636060175        4.9338339355
  H        -1.3233043913        9.7125683245        5.6549116631
  C        -0.5981576155       10.1264273656        3.5856126878
  C         3.9273357550       16.1131385814        3.2325070329
  C         4.3313070960       13.9185401289        2.4278439850
  C         1.0571900637       13.8996055906       11.8528095275
  C         0.9138885188       12.5281306775       12.5946033364
  S         0.7344920577        9.9353025991       12.5489432218
  H        -0.1524649540        9.1526184221        3.7842836998
  H         0.1893033250       10.8053206190        3.1797262903
  C        -1.7620345962        9.9846296354        2.6572968653
  N         3.4999021970       17.0567022115        4.1380030501
  C         4.3003466115       16.6836028209        2.0091110710
  C         4.7748746355       14.3994975924        1.1631999189
  H         4.3626793134       12.8100972972        2.5964480333
  C        -0.2556092478       14.7000918145       11.6254455903
  C         2.1869846801       14.6808042308       12.5646941097
  C         0.6229158993       12.1428988010       13.9337815601
  C         0.5051491584       10.7432335150       14.0327296425
  H        -2.5951440292        9.5026594771        3.1252406273
  H        -2.1931925683       10.9491736330        2.5004621288
  C        -1.3807642827        9.2863543983        1.3641866428
  S         3.6716253905       18.5250980544        3.4611776136
  N         4.2589844995       18.0324431251        2.0483418986
  C         4.6173514174       15.8973149631        0.8890136855
  H         5.0780802186       13.6991320756        0.3907826223
  H        -0.0709737309       15.5225942760       10.8771235083
  H        -0.5822123888       15.0955026610       12.6293980603
  C        -1.4487138256       13.8506282502       11.1570240959
  H         2.6476610156       15.3648136675       11.8646186500
  H         1.6880590204       15.2977987281       13.2837071063
  C         3.3528239884       13.9721377833       13.1829918100
  H         0.5301840547       12.9061832423       14.6642517805
  C         0.1666641197        9.9466761480       15.2322204537
  H        -2.2339256821        9.1543946633        0.6776366003
  H        -0.9164248296        8.3547682843        1.6046891906
  C        -0.4362559211       10.1615106653        0.4653501744
  C         4.8533075562       16.4782053148       -0.4397219015
  H        -1.1668496109       13.5682107586       10.1209857728
  H        -1.5916819912       12.9878517850       11.7672592031
  C        -2.7358233153       14.6024122035       11.0090026424
  H         3.8185029721       13.2378823527       12.5305203622
  H         2.9125980754       13.4444674367       14.0106412493
  C         4.4760246265       14.8793315789       13.6917085119
  C         0.0677317401        8.5040709061       15.2871520178
  C        -0.0111741917       10.5731818940       16.5826671708
  H        -0.0773700488       11.0184567113        0.9896599942
  H         0.5524041167        9.6802404299        0.2814994748
  C        -1.0992847259       10.5542838606       -0.8894759705
  H         4.9342245523       17.5529531656       -0.4346000704
  C         5.0957520958       15.9605726586       -1.6751108656
  H        -2.4702785303       15.5381630146       10.5381480641
  H        -3.1062192895       14.8618218630       11.9975108374
  C        -3.6856083030       13.8204225353       10.1456537224
  H         5.0772299773       15.2398930345       12.7685694347
  H         3.8116765844       15.6124908055       14.2597509196
  C         5.3592052962       14.0210279230       14.6671916275
  N         0.3211084318        7.6655054839       14.2167269409
  C        -0.2518275429        7.8301051965       16.5170457201
  C        -0.3448484680        9.8764018374       17.7125039628
  H         0.2206767658       11.5922793103       16.6338311620
  H        -0.4231284585       11.3163069572       -1.3691882380
  H        -2.0891985847       10.9596054328       -0.7304113745
  H        -1.1998188828        9.6698459925       -1.5624571920
  S         5.2520732056       14.3339145229       -2.2186773516
  C         5.2888423998       16.9598387562       -2.7396138518
  H        -3.3130418085       13.7625971805        9.1076810302
  H        -3.8668035039       12.8623251794       10.5729408752
  C        -5.0318886336       14.5289183725       10.0740311811
  H         5.2593185777       13.0357915334       14.3727786892
  H         4.9329538367       14.1467010026       15.7246621071
  C         6.8293499067       14.3788754757       14.7239374115
  S         0.1731863699        6.1085544646       14.7524774587
  N        -0.4089208165        6.4946069318       16.2701434772
  C        -0.5320556631        8.4527296288       17.7856218412
  H        -0.3779880968       10.4401527605       18.6090859390
  C         5.4577046565       14.9429104034       -3.8332304823
  N         5.5270931772       16.3183362217       -3.9566186785
  O         5.1912618483       18.2385400899       -2.5608094500
  H        -5.3376722356       14.7528869014       11.0981798669
  H        -4.8269360505       15.5337374492        9.6315700604
  C        -5.9962904026       13.6731259921        9.2350791958
  H         7.2385644435       13.4678429334       15.1027321836
  H         7.3108113064       14.5884238782       13.7439532253
  C         7.1047652559       15.4711167627       15.7551463666
  C        -0.9178686999        7.6792153483       18.8988424277
  S         5.9613840197       14.0393169575       -5.2828015383
  C         5.7683373713       17.0421452066       -5.2209552963
  H        -5.5065935309       13.6147538871        8.2183465672
  H        -6.1663388708       12.6590894518        9.7127917039
  C        -7.4025669842       14.1855403536        9.3542249156
  H         7.2290767804       14.9593023553       16.7642805866
  H         6.1162847669       16.0251904970       15.8560638552
  C         8.1483988042       16.4969771644       15.3871288334
  H        -0.6470381410        6.6492393823       18.7559868954
  C        -1.5024162739        8.0698717787       20.0605120265
  H         6.4855227793       16.5475929865       -5.8881401255
  H         6.3062762441       17.9422308519       -4.8164122806
  C         4.4808208173       17.4190334337       -5.8625254287
  H        -7.9777578002       14.0264667202        8.4176974757
  H        -7.3588948467       15.2360830425        9.5192483655
  C        -8.2102861862       13.5914284480       10.5141609445
  H         8.6896982742       16.6601792922       16.3096693284
  H         9.0448505790       16.1337710896       14.7525049835
  C         7.4990132098       17.7225879102       14.9441101340
  S        -1.8761367053        9.6549417238       20.5895195144
  C        -1.7816004463        7.0838010666       21.0357672695
  H         4.6788289493       18.2271415968       -6.5306014794
  H         3.7047102629       17.6997095314       -5.1687856011
  H         4.0565933058       16.7153790418       -6.6624148989
  H        -8.8442577780       12.7288356476       10.1626290570
  H        -7.6258841311       13.5582111825       11.3819149345
  H        -8.8916390606       14.4740865985       10.7585326067
  H         7.0540478134       17.6757815906       13.9214698356
  H         6.6917456773       18.0456486174       15.6577908992
  H         8.2625811967       18.4976231736       14.7958990388
  C        -2.3611935840        8.9419934576       22.1030394770
  N        -2.3666745260        7.5911452658       22.1270775546
  O        -1.4138122531        5.9281773499       20.9622812725
  S        -2.6181930661        9.7766232996       23.5844969372
  C        -2.5134016398        6.8145649719       23.4220807431
  H        -2.7594801475        5.8330380416       23.1499578256
  H        -3.3510396453        7.2452319605       24.0031829414
  C        -1.2090340337        6.7927020594       24.2505129091
  H        -0.7387695457        5.8117531779       24.0213460850
  H        -1.4005808630        6.8319573798       25.3108279900
  H        -0.4704646544        7.5272128423       23.9265864605
