352
i =
  H        -3.3936418086       13.2821168898       16.3971785497
  C        -2.4814802218       13.8069517565       16.6904613607
  H        -1.8465269693       13.0298368162       17.2708618339
  C        -2.8958345455       14.8916467028       17.6392748125
  C        -1.7665860089       14.3083949085       15.4364461970
  C        -3.3363781148       14.3041692781       19.0265052573
  H        -2.0015480433       15.5523970445       17.6906780059
  H        -3.7786364321       15.5130874508       17.2717505510
  H        -1.7302242327       13.4906796923       14.7347761627
  H        -2.1302262078       15.2153026206       14.8539799466
  H        -0.6741408713       14.4285629772       15.5314127715
  C        -2.1251510377       13.9765835791       19.9411516701
  H        -3.8633550782       13.3424399352       18.8112874621
  H        -4.1162489531       14.9852908000       19.4343591821
  C        -2.4090267652       13.9095725011       21.4254666269
  H        -1.6796767873       13.0712442976       19.5272423183
  H        -1.4062759815       14.7671004215       19.7705923732
  C        -1.3383470779       13.0857376166       22.2286461552
  H        -3.4005364289       13.4968876793       21.5925868811
  H        -2.3831977537       14.9889955108       21.8305489061
  C        -0.0676806988       13.8580388075       22.3739501481
  H        -1.8482829286       12.8190594569       23.2117951157
  H        -1.2860295571       12.1732100700       21.6147352120
  C         1.0872399625       13.0898298754       23.1266311810
  H         0.2860924257       14.2954496504       21.4001708507
  H        -0.2753596070       14.7862586588       22.8476751619
  C         1.3567873485       11.7596750241       22.4850764200
  C         0.7565502382       12.4875527151       24.4035840398
  C         2.3531744144       14.0379884901       23.2044969957
  C         1.2703196923       10.7154966687       23.3908327229
  C         1.8671797044       11.3396301717       21.2731740039
  C         0.6933028995       11.1344166091       24.5567777287
  C         0.2467306403       13.2379308555       25.5505547174
  H         2.5920630137       14.5813826928       22.2707264583
  H         2.1481749577       14.8158298279       23.9118995224
  C         3.5684241920       13.3084905810       23.6987906690
  S         1.7991734455        9.1982548872       22.6310303604
  C         2.0913817180       10.0177659530       21.1536466699
  H         2.0375666112       12.0741802894       20.4635712029
  C         0.2792522517       10.6193906663       25.7463475974
  H         0.0157575137       14.2887225513       25.5296414634
  C        -0.1611782720       12.6452643439       26.7672113139
  H         3.8263555072       12.6038873073       22.9762060203
  H         3.3017884303       12.7066218040       24.5964505654
  C         4.8637717396       14.0868680535       23.9081912142
  C         2.5159505309        9.2964808898       19.8777700004
  C        -0.1018379585       11.2742011069       26.8902754577
  H         0.3525543082        9.5049268498       25.8087764006
  C        -0.5604229635       13.0681342545       27.9853093505
  H         5.5713739867       13.3987449146       24.4399136198
  H         4.6972057061       14.9676184239       24.5016149171
  C         5.6570683748       14.5059854424       22.6904771473
  C         2.4962920824        7.8568925713       19.6976614024
  C         3.1126405241       10.1040098017       18.7415494835
  C        -0.4887702349       10.5623709520       28.1471796976
  C        -0.7461781368       11.9426891696       28.8067202253
  S        -0.9007642644       14.5584509650       28.7743256159
  H         6.3929646486       15.2649979813       22.8854992655
  H         5.1322986533       15.0208971717       21.9690707925
  C         6.4424204239       13.3962495833       22.0695617069
  N         2.1028445559        6.9300439956       20.6539423396
  C         2.8565050747        7.2734045554       18.5013544101
  C         3.4863550204        9.4248403703       17.5649549131
  H         3.1929376587       11.1949387769       18.7427927642
  C         0.6674228359        9.7072272254       28.6134274450
  C        -1.7732997570        9.7336236986       27.8804446368
  C        -1.0949924441       12.3539949985       30.1137457513
  C        -1.2532072714       13.7187549418       30.2046231041
  H         7.4382671365       13.7048115052       21.8292488748
  H         6.3882912142       12.4671132907       22.5735306568
  C         5.8645894676       12.9813734622       20.7294587519
  S         2.1893025438        5.4671687867       20.0164219821
  N         2.7332932795        5.8871740694       18.5576685516
  C         3.2759498899        8.0147251037       17.3478674168
  H         3.8668279860       10.1021221008       16.7718292874
  H         0.9794964059        9.0155940290       27.8677367442
  H         0.3720576819        9.2031745442       29.5005527061
  C         1.8888826590       10.4142034080       29.0630938391
  H        -1.5835983865        9.0519540364       26.9969793151
  H        -1.9361977879        9.1208882889       28.7257349598
  C        -2.9223559434       10.6453984140       27.5860085065
  H        -1.2614681095       11.6563396901       30.8378557246
  C        -1.5843039202       14.4914700436       31.4341578699
  H         4.8376893663       12.7205360449       20.6689219915
  H         6.2504552978       12.0116260569       20.5051100365
  C         6.1855371459       13.8966598761       19.5568785884
  C         3.4484687916        7.2971730277       16.1025058855
  H         2.3732233632       11.0463997751       28.3108000686
  H         1.5527446940       10.9980978103       29.9172049600
  C         2.9208565879        9.4136699578       29.6162470968
  H        -2.6538112845       11.3221283093       26.8329713156
  H        -3.1938745152       11.0853605263       28.4839497597
  C        -4.2418832996        9.9266861834       27.0939844953
  C        -1.7346925257       15.9087833977       31.6011616836
  C        -1.8814037614       13.7480336524       32.6978273860
  H         5.3206845550       13.8638991398       18.9188001163
  H         6.2945224451       14.9860774086       19.8393798216
  C         7.3746029568       13.4760888924       18.7300831878
  H         3.3994829698        6.2194825977       16.2915349006
  C         3.5065819962        7.6844029964       14.7714699994
  H         3.2103449515        8.8221094396       28.7407345343
  H         2.4594832811        8.6884090697       30.2502823691
  C         4.0691950092       10.1206693122       30.3681035598
  H        -4.1301136509        9.4838597059       26.1251680650
  H        -4.4792189257        9.1750883770       27.8327696387
  C        -5.4973553407       10.8028795994       26.9610560653
  N        -1.6380397788       16.9002510492       30.5984344721
  C        -2.0282420681       16.5480036034       32.8227483055
  C        -2.1244257762       14.3923597964       33.9035420785
  H        -1.8254938746       12.6166358406       32.7417418993
  H         7.1676996126       12.6750487140       17.9583168279
  H         7.7865546272       14.3383513780       18.2339879819
  H         8.0799046396       13.0782470767       19.4442801826
  S         3.8653238377        9.3041636003       14.2662281659
  C         3.5356559491        6.6792671525       13.7195333594
  H         4.3181605892       11.0097016499       29.8814074665
  H         3.7878671644       10.2378868630       31.3916670309
  C         5.3382855665        9.2445681487       30.4635997744
  H        -5.3947293569       11.9124005422       27.0268289252
  H        -6.2208829993       10.5184957718       27.7077795254
  C        -6.1164834469       10.5851407839       25.5444360647
  S        -1.7101032745       18.3735174855       31.2915098206
  N        -2.1460522530       17.9148344090       32.7744773928
  C        -2.1450962189       15.8609764696       34.0444074204
  H        -2.2273349891       13.8250977024       34.7247141219
  C         3.9289093226        8.5853609134       12.6405185186
  N         3.7644798917        7.2598410857       12.5291214988
  O         3.4706542723        5.4825968636       13.8702170345
  H         6.0927979729        9.8064821137       30.9997650834
  H         5.5778153004        9.0142944695       29.4311105901
  C         5.2000869420        7.9366509905       31.3046981035
  H        -5.6104932202       11.2883639668       24.8625651888
  H        -5.9887946631        9.5046051539       25.2061673062
  C        -7.5855559073       10.8813012933       25.4547295817
  C        -2.4357465915       16.6056797445       35.1906402605
  S         4.3703822351        9.5215914236       11.1599154366
  C         3.7160101592        6.5138789399       11.2600425935
  H         5.7563892491        8.1475175490       32.2892944020
  H         4.1628196756        7.7542156029       31.5628659998
  C         5.6869434115        6.6633050051       30.6892613565
  H        -7.8672222572       10.9704949667       24.3904817411
  H        -7.7410323712       11.8050158200       25.9294004997
  C        -8.4655813164        9.8571533065       26.1213776393
  H        -2.0535471434       17.6438659523       35.1231342898
  C        -2.9501143165       16.4144202284       36.4707759188
  H         4.2393355583        6.9600154953       10.4152070040
  H         4.3029487908        5.6132610276       11.4188455505
  C         2.2664499786        6.1853749164       10.9223250243
  H         6.8058844939        6.8021408226       30.5511025241
  H         5.1654710187        6.5598862383       29.7499566112
  C         5.4341382607        5.3228196098       31.5300139551
  H        -8.4787201067        8.9918913073       25.3959730822
  H        -8.0987019636        9.5170067204       27.1178175288
  C        -9.9085678937       10.3299534665       26.3772006555
  S        -3.5281569822       14.8548572755       36.9749920155
  C        -3.1245185310       17.5804285502       37.3688761316
  H         2.2195540118        5.7454099050        9.8901264026
  H         1.7846802248        5.5215644253       11.6563577091
  H         1.6764004797        7.1657043007       10.9412000943
  H         6.3294376932        4.6688878267       31.4059193429
  H         4.5814041051        4.7849416418       31.0934650201
  H         5.3431615737        5.6484724512       32.5812662840
  H       -10.4071915826       10.5896971714       25.4277809996
  H        -9.9193896957       11.2557660420       26.9434798365
  H       -10.4926823727        9.5868000637       26.8813860360
  C        -3.9340654249       15.7008653571       38.5161796713
  N        -3.7048544660       17.0535999168       38.5232410916
  O        -2.7211591029       18.7231229276       37.1248324264
  S        -4.6284200316       15.0594649370       39.9777163333
  C        -3.8339719225       18.0776413702       39.5581767598
  H        -4.0875519277       19.0100242523       39.0529284764
  H        -4.6951099722       17.8709691787       40.1391608091
  C        -2.5716225115       18.0559516714       40.3588649822
  H        -2.2517286954       19.0568599779       40.4937078651
  H        -2.7994401356       17.5782363317       41.3080316691
  H        -1.8492406673       17.4390717181       39.9730318844
  H         7.0078842139       11.6779117278        3.2303465729
  C         7.6658840091       10.8518579089        3.5001440451
  H         6.9668154377       10.1252178234        3.6765884870
  C         8.5704276540       11.2633348424        4.7180018741
  C         8.3796691393       10.4393415419        2.2872417264
  C         7.7064150064       11.3399820548        6.0000353052
  H         9.3606668708       10.5584419094        4.8870631044
  H         9.0760416502       12.1693925165        4.4842758832
  H         8.8698502299       11.3522574731        1.9145017900
  H         7.5375250203       10.1421280330        1.6135726726
  H         9.1396161863        9.6613923483        2.4324219092
  C         7.0378281294        9.9601892791        6.3749844429
  H         8.2940581736       11.6334222201        6.8556836777
  H         6.9847004831       12.0929357608        5.8323490279
  C         6.3254103501        9.8610428867        7.8067760313
  H         7.8811084256        9.2499993241        6.3640153000
  H         6.3381713716        9.5998496678        5.5370470425
  C         4.9901534303       10.5519664981        7.8104750162
  H         6.9980973406       10.1194773482        8.6138072293
  H         6.1069635248        8.8346337835        8.0524746603
  C         3.7700095278        9.7964038262        7.3050475126
  H         4.7951828240       10.8915808391        8.8383332002
  H         5.2620583616       11.4438243052        7.2594875020
  C         2.4605179429       10.6852508986        7.0328608751
  H         3.5446226910        9.0854965481        8.0854651605
  H         4.0573609869        9.1322803080        6.4725642302
  C         2.9575897580       12.0156345499        6.3706625553
  C         2.0056127517       11.4077408262        8.2033688487
  C         1.3461180016       10.0020418626        6.2041636060
  C         2.7579550817       13.1399635182        7.1455068415
  C         3.5887344446       12.3819648750        5.1771762350
  C         2.1734347242       12.7688717326        8.3132371210
  C         1.6775297598       10.8056066573        9.4531557834
  H         1.7544351799        9.6048183910        5.2573560152
  H         0.9451183325        9.1096939135        6.6386158956
  C         0.0900503776       10.8720060485        5.9128864422
  S         3.1970354970       14.5992077199        6.3670061493
  C         3.6998099164       13.7245711179        5.0140492735
  H         3.8852214028       11.5969035890        4.5472446437
  C         1.8615131598       13.4159827997        9.4569264043
  H         1.7010854640        9.7703575891        9.6428125267
  C         1.2731637537       11.4746309788       10.5246295539
  H         0.3226461362       11.7925408591        5.3286757806
  H        -0.2670793285       11.3404044017        6.8157455464
  C        -0.9977045467       10.0962956710        5.1752700551
  C         4.1355390157       14.4375058336        3.7349786398
  C         1.3266898867       12.7947682061       10.5911774337
  H         1.9103046120       14.4843688707        9.4074624122
  C         0.9546115805       11.1220019437       11.8201940096
  H        -1.9353365234       10.6635749629        5.0602913614
  H        -1.2332037026        9.1626402754        5.7207349727
  C        -0.5713639506        9.9761109480        3.7107439339
  C         3.9687231395       15.7854003293        3.4127444214
  C         4.7040950156       13.5710649749        2.6822399446
  C         0.9462920817       13.5224526001       11.8576437726
  C         0.8768766377       12.2402976462       12.6402825158
  S         0.7548893834        9.6098372655       12.5589455266
  H         0.1639992089        9.2012519573        3.4478741039
  H        -0.1783829678       11.0081952487        3.5597170380
  C        -1.8184027977        9.8702025338        2.8132677045
  N         3.4274316265       16.7947986839        4.2597334908
  C         4.2988602168       16.3447440858        2.1581432068
  C         5.0764701417       14.0830237475        1.4475864060
  H         4.9343148259       12.5676307773        2.9484712785
  C        -0.2970631186       14.3665607371       11.8187584301
  C         2.1428130560       14.2527636158       12.5307194760
  C         0.6424463409       11.8488066113       13.9938321419
  C         0.4711945865       10.4809266512       14.0775220319
  H        -2.5834045151        9.3069207319        3.3329974897
  H        -2.0057264856       10.9379996257        2.6661196318
  C        -1.4757476100        9.2475138713        1.4570398880
  S         3.6325144365       18.2483418233        3.5449206238
  N         4.2520671709       17.7268655861        2.1126529649
  C         4.7451420684       15.5164925991        1.1152867227
  H         5.2961523183       13.3779807429        0.6341582791
  H        -0.0438190319       15.2201204986       11.1206658964
  H        -0.4546386051       14.6570618930       12.8770524574
  C        -1.5089917020       13.6165214937       11.4170945985
  H         2.3438413873       15.1364653255       11.8886076219
  H         1.8283403037       14.5775494017       13.4885861646
  C         3.4593679184       13.4918549194       12.7757315756
  H         0.4406532581       12.6071352581       14.7903338798
  C         0.1407123623        9.7719592442       15.3345329182
  H        -2.3962105318        9.0342772909        0.8782841744
  H        -0.9954798603        8.3034571094        1.7122465722
  C        -0.5120749919       10.0607900394        0.4987507121
  C         4.8471581511       16.1835483893       -0.1063798697
  H        -1.3354187984       13.1231736587       10.4568880571
  H        -1.7328255702       12.8752653838       12.1782764828
  C        -2.7436425714       14.5189639916       11.1599494615
  H         3.9884759349       13.2131715859       11.8869724483
  H         3.1712629111       12.6650103565       13.4143235333
  C         4.3862018837       14.4395801530       13.5175752431
  C         0.1618867911        8.3598965274       15.4654922072
  C        -0.0782901769       10.5649314027       16.6433661074
  H        -0.1374978103       10.9219347024        1.0767497512
  H         0.3316274047        9.3927844265        0.2189297740
  C        -1.1426769975       10.5999757893       -0.7339778159
  H         4.5924578468       17.2537888478       -0.1020430438
  C         5.1886905863       15.7406164683       -1.3987036383
  H        -2.4954926101       15.2685613448       10.3878170234
  H        -3.0110754358       15.0353368206       12.1097371580
  C        -3.8912236635       13.6325968445       10.7277824303
  H         4.7384011567       15.1958681094       12.7485612572
  H         3.6718541542       14.9705893473       14.1620018370
  C         5.4968656667       13.7984229342       14.3626042428
  N         0.3117963558        7.5154237888       14.4120451557
  C        -0.1198117628        7.7127053870       16.6411249124
  C        -0.4172074822        9.9066934619       17.8546771271
  H        -0.1505513613       11.6674162005       16.6727828352
  H        -0.4776350190       11.2422360498       -1.3646134003
  H        -1.9265595175       11.2591500178       -0.4562725098
  H        -1.6168088132        9.8186164691       -1.3543117936
  S         5.6002613973       14.1121629919       -1.8170637760
  C         5.3140923408       16.7008834764       -2.5326027397
  H        -3.4731972491       12.8850993122       10.0732031987
  H        -4.3817287751       13.1877413929       11.5739569295
  C        -4.9950795447       14.2864841677        9.8383392001
  H         5.6592418816       12.8300682028       13.9619535812
  H         5.2179408928       13.5380353530       15.4024105489
  C         6.7966601252       14.5897487711       14.1545277434
  S         0.1019102266        5.9660872141       14.8995736241
  N         0.0245371934        6.2942478282       16.4776127775
  C        -0.4934033505        8.4344001969       17.8490676052
  H        -0.6841164411       10.4809590486       18.7501121784
  C         5.5991840384       14.6718107770       -3.4754433666
  N         5.6128007287       16.0487991719       -3.6360987912
  O         5.1443390909       17.8821437652       -2.3454120784
  H        -5.6746807514       14.9538530772       10.3792859591
  H        -4.3504092771       14.9167360668        9.1353308358
  C        -5.6596185232       13.2909232221        8.7925046324
  H         7.5931953534       13.9345926371       14.4901422724
  H         7.0587593755       14.7967736599       13.0481386193
  C         6.8656344063       15.9494142359       14.9222495172
  C        -0.7724423762        7.6433738236       19.0141412105
  S         6.0528245897       13.8590352867       -4.9763760011
  C         5.6094781756       16.7286161406       -4.9643638695
  H        -4.9164791316       13.1966163855        7.9259847612
  H        -5.8656849171       12.3073837869        9.1775019162
  C        -6.9327007298       13.8859792565        8.2246921892
  H         6.8248932405       15.6079513984       15.9753852911
  H         5.8999319180       16.4611070973       14.8014421451
  C         8.0660626324       16.8336809829       14.7156362410
  H        -0.8482644227        6.6206259790       18.9109724835
  C        -1.1408485369        8.0110749944       20.3023388873
  H         6.0921251842       16.1635982248       -5.7782923935
  H         6.1291537034       17.7417940985       -4.8791703167
  C         4.1933626081       17.1291876530       -5.4847722074
  H        -7.1814207532       13.2258919598        7.3551962363
  H        -6.7933837330       14.8313267039        7.7340518296
  C        -8.2396485173       13.7593995304        9.0929324661
  H         8.2417857490       17.5534437999       15.5084546555
  H         9.0767754411       16.3020285138       14.7850220462
  C         7.9199941369       17.5944259815       13.3612958866
  S        -1.4836722419        9.5928710559       20.8744742742
  C        -1.3250118787        6.9385797256       21.3186057861
  H         4.3288084717       17.5422179399       -6.4716880564
  H         3.6463017703       17.7100219511       -4.8043914057
  H         3.6332217071       16.2219065252       -5.7904033096
  H        -8.2672509532       12.9167492931        9.6947491149
  H        -8.1603745776       14.6588878010        9.6968899538
  H        -9.1748132981       13.7151536452        8.5545284210
  H         7.4643494046       17.0720432168       12.5347543044
  H         7.4393876423       18.5423924081       13.5144322754
  H         8.9848394867       17.7098332955       13.0858867286
  C        -1.8912899711        8.8501067781       22.4752238632
  N        -1.8286133766        7.4942855213       22.4651562529
  O        -1.3140355134        5.7488802036       20.9818178971
  S        -2.2091242816        9.6584313443       23.9666581085
  C        -2.1758127377        6.6419460366       23.5550333259
  H        -2.6657518648        5.7622848334       23.0985198748
  H        -3.1191225035        7.0060174357       24.0268946208
  C        -0.9026674868        6.3819785404       24.2994633602
  H        -0.2080709323        5.8554042390       23.5986154740
  H        -1.0518091064        5.7251052758       25.1159262321
  H        -0.4262942092        7.3206970500       24.6020205802
