352
i =
  H        -3.2344595695       15.2868268956       16.3614237046
  C        -2.8235475243       14.2064690424       16.3183086081
  H        -3.6366295665       13.5216118664       16.5769924682
  C        -1.7777149375       13.9830905567       17.3173598262
  C        -2.2848087439       13.8612726727       14.9300615827
  C        -2.3564291042       14.0708087796       18.7522221310
  H        -1.3699825286       13.0208926717       17.1560458404
  H        -1.0022056617       14.7177309322       17.1037702833
  H        -1.3335007189       14.3121176191       14.7497606235
  H        -2.1143644587       12.7993196029       14.9395106055
  H        -3.0577587871       14.0375687857       14.1465453867
  C        -2.0071600893       12.8950798989       19.7126133486
  H        -3.2869148874       14.5809507742       18.8168112834
  H        -1.7258984985       14.8931162903       19.1082174539
  C        -2.1299064783       13.4417486885       21.1253148938
  H        -2.6951202021       12.1125496577       19.6413562747
  H        -1.0119081605       12.5108955066       19.5219993505
  C        -1.2194810721       12.8048804060       22.1962349578
  H        -3.1426153688       13.4784746861       21.4436303087
  H        -1.8777854029       14.5251413861       21.1182188991
  C        -0.0511569612       13.7584008883       22.5703049671
  H        -1.7856102566       12.5534024175       23.0831592362
  H        -0.8237969100       11.8467136654       21.8419697372
  C         1.1251050544       13.1385550143       23.3228378149
  H         0.3892613444       14.1033493065       21.6102364972
  H        -0.4766137465       14.6053001815       23.0950971529
  C         1.5536622284       11.7707260170       22.6125760638
  C         0.6854337194       12.4066135218       24.5009685222
  C         2.2678372560       14.1575906302       23.5999804002
  C         1.2981845471       10.6384565524       23.3668480939
  C         2.2027932728       11.4380024518       21.3724931908
  C         0.7699467530       11.0697979637       24.5827911026
  C         0.2392265312       13.0035871175       25.6667705006
  H         2.4061339203       14.7327469858       22.6870229657
  H         2.0549119706       14.9732106596       24.2612987289
  C         3.6449953005       13.5291237352       23.8145429810
  S         1.5335694465        9.2174557670       22.5308134047
  C         2.1983501317       10.0876049841       21.2359147125
  H         2.5185073941       12.2325113612       20.7524484004
  C         0.3171354324       10.4761150841       25.7346755012
  H         0.3187692703       14.0612711878       25.7564901008
  C        -0.1745832478       12.3624681425       26.8290233091
  H         3.8374771601       12.6922202515       23.1600893805
  H         3.4793647298       13.0694309757       24.7774805518
  C         4.8404931127       14.4532151012       23.7639601705
  C         2.5979168903        9.3823042215       19.9669585826
  C        -0.2295470190       11.0631082770       26.9171525093
  H         0.4695081146        9.4309545934       25.6900397857
  C        -0.5291711785       12.7972105750       28.0746537602
  H         5.5800068432       14.0961363521       24.5055172156
  H         4.5141606136       15.3799047416       24.1899396791
  C         5.3085944586       14.6954339048       22.3797621105
  C         2.6321841133        7.9955677866       19.7186774061
  C         3.0589271198       10.2848314812       18.8385671144
  C        -0.6848337597       10.4143241866       28.1943272506
  C        -0.8897192694       11.7315219617       28.8582063337
  S        -0.6052349907       14.3336918518       28.8374262605
  H         5.9090856805       15.5802143592       22.3794031381
  H         4.3626928054       14.8537702348       21.7936695375
  C         6.0135661211       13.4780658569       21.8171851698
  N         2.3553988998        6.9326467186       20.5593457862
  C         3.0062554241        7.4530056697       18.4848539725
  C         3.3707068384        9.7283455792       17.6106597424
  H         3.0564821262       11.4007530154       18.8589516413
  C         0.4583382406        9.6282146598       28.9121198928
  C        -2.0160654230        9.6485026977       28.1347600077
  C        -1.1627403405       12.1767905481       30.1878287630
  C        -1.1085948605       13.5444423576       30.2760021397
  H         6.9443481752       13.5116351766       22.3527461725
  H         5.5828206424       12.4618610082       22.0945246357
  C         6.1699920108       13.5059681520       20.3241677103
  S         2.2944778034        5.5480078547       19.7457850098
  N         2.9370859160        6.0840213391       18.4526239481
  C         3.3752005936        8.2810545477       17.4114720902
  H         3.6630669623       10.4534176648       16.9139333578
  H         0.8906447924        8.9663834393       28.1219197492
  H         0.0968439122        8.9174200000       29.6888451687
  C         1.7104544299       10.3622380456       29.2858894594
  H        -1.9540249187        8.8804388149       27.3510705995
  H        -2.2419752944        9.1476833916       29.1181168829
  C        -3.1626685789       10.5270461697       27.7516724941
  H        -1.5220042819       11.2965791510       30.8812659343
  C        -1.3808090188       14.2995050094       31.5402737436
  H         5.7561930270       14.3807090407       19.8170983498
  H         5.6944302339       12.6092920105       19.9636583263
  C         7.6304168151       13.3588102619       19.9492377978
  C         3.6192724409        7.5478028870       16.2420425421
  H         2.1497582804       10.9194218043       28.4381382365
  H         1.4315770243       11.0855994980       30.0066012694
  C         2.7277411856        9.4234925655       29.8873081354
  H        -2.9735490949       11.1901362733       26.9564770239
  H        -3.4760568447       11.1655935709       28.6011024104
  C        -4.4012990439        9.7276529189       27.4667717562
  C        -1.4212644301       15.7084441806       31.6486992176
  C        -1.5413852388       13.6476736848       32.8659265153
  H         8.2885374622       13.8535754366       20.6360183601
  H         7.7529912707       12.2802599780       20.0875041624
  C         7.8123676239       13.6820221586       18.4534159390
  H         3.1842445500        6.5864953562       16.1704720980
  C         3.9033439368        7.9920750714       14.9657846872
  H         2.6046340380        8.4467347805       29.4345068503
  H         2.5350479437        9.3432844759       30.8954614649
  C         4.1949691608        9.9056789427       29.6713840218
  H        -4.1179931527        8.7653625975       27.1480102580
  H        -5.0935663070        9.4508630704       28.2949627856
  C        -5.1618994905       10.4913569404       26.3734996617
  N        -1.2437106085       16.5629021111       30.5562037540
  C        -1.8295430698       16.3548203044       32.7876836365
  C        -1.8735308614       14.3312983168       34.0380231782
  H        -1.4036838550       12.5778534205       32.9573648287
  H         6.9267524309       13.9185547349       17.9888037890
  H         8.5467073565       14.5086291361       18.2739990017
  H         8.1728074879       12.7041695247       18.1064118567
  S         4.2381876705        9.5489513938       14.4909383927
  C         3.9380445198        6.9451259303       13.8552872117
  H         4.3092824651       10.4680627455       28.7572887873
  H         4.3864440387       10.5918580180       30.4616075935
  C         5.2231712880        8.7950053145       29.7200468957
  H        -4.5469157441       10.5498272939       25.4529670394
  H        -5.1601141587       11.5201167217       26.7539927953
  C        -6.6141111852        9.9010462702       26.2439078259
  S        -1.4973907454       18.0676093181       31.0261692902
  N        -1.9409205859       17.7006928875       32.4934893662
  C        -2.0401415342       15.7991668269       34.0755227590
  H        -2.0029243101       13.8828588753       35.0311317466
  C         4.5458939909        8.8502848787       12.8698983624
  N         4.4288182848        7.5015157676       12.7026743271
  O         3.6497033980        5.7637286946       13.9551931561
  H         6.2392810209        9.2691900395       29.6397185174
  H         5.1171304182        8.0414612907       28.9833474246
  C         5.3358649612        8.1430189487       31.1074363946
  H        -6.5285573529        8.9262716269       25.9389316547
  H        -7.1048397807        9.7569849582       27.2091698516
  C        -7.5553022130       10.7333388621       25.3307291247
  C        -2.2219902334       16.6806609029       35.1791788554
  S         5.1286257198        9.7233379844       11.4652634944
  C         4.4455563919        6.7648406469       11.4563465859
  H         6.0841686665        8.8253003664       31.4859849102
  H         4.4205469733        8.3134347114       31.7345357858
  C         5.9063083345        6.6822209030       31.0874671133
  H        -6.8870036301       11.2012107279       24.6023767037
  H        -8.0429289501       11.6063088680       25.8634597322
  C        -8.6301965549        9.9117211005       24.6458386093
  H        -1.8642555156       17.6573085821       35.0493718520
  C        -2.8763201624       16.4380043108       36.4058109008
  H         5.1519898200        7.1937232493       10.7224866002
  H         4.7479339515        5.7026110037       11.6475995510
  C         3.0314590350        6.7370495395       10.8140592715
  H         5.8428671183        6.1656720497       30.1294136500
  H         5.3713202057        6.1794123952       31.8246794990
  C         7.4255215476        6.6982964645       31.2637031780
  H        -8.8772146829       10.4083334487       23.7600680972
  H        -8.2555845631        8.8765695081       24.3823966539
  C        -9.9107462504        9.7380933189       25.4120968333
  S        -3.6016500939       14.9446903931       36.8637448550
  C        -2.9483488637       17.5111256684       37.3866293314
  H         3.0610217344        5.8656648776       10.1500294855
  H         2.2380457164        6.5377639262       11.5373777190
  H         2.6831938014        7.5576074881       10.1924292082
  H         7.9439578982        5.7681905702       30.8902245189
  H         7.6542678099        6.9711272928       32.2940796255
  H         7.9030269776        7.4508166438       30.7070954248
  H       -10.3960811239       10.7115245389       25.6118040798
  H        -9.8737766509        9.1956924613       26.3184207360
  H       -10.7058008750        9.2518279523       24.8265894744
  C        -3.9484563663       15.7548641765       38.4176813341
  N        -3.5631443885       17.0169847113       38.4818189392
  O        -2.5595162483       18.6325809093       37.2463092709
  S        -4.4549482539       14.9068202115       39.8854242108
  C        -3.5751688289       17.9106089714       39.6615553859
  H        -3.7266028255       19.0033485749       39.4868104406
  H        -4.4220906301       17.5773955743       40.2252343045
  C        -2.3093565126       17.7230347164       40.4091528049
  H        -1.9376039091       18.6413513779       40.8478538153
  H        -2.4904546141       17.0565024567       41.2460756060
  H        -1.4965264997       17.2988260035       39.7874411247
  H         7.6502592586       11.5963316367        3.4443491406
  C         8.3845604084       10.8276409972        3.6201405438
  H         7.7973946440        9.9437234245        3.7818817798
  C         9.1859096958       11.1740069215        4.8775113611
  C         9.2107078630       10.5031693479        2.3404819039
  C         8.4189621538       11.0287883579        6.1703523468
  H        10.1962445791       10.7457518097        4.9102493861
  H         9.3241745304       12.1942710055        4.7108598831
  H         8.6258930547       10.2702899454        1.4618419389
  H         9.8671396025        9.6291158578        2.4598721935
  H         9.9684870235       11.2854387659        2.2467915503
  C         8.1268714784        9.5805960592        6.6266830668
  H         9.0957842287       11.3321834156        6.9905751792
  H         7.6826734075       11.8168009867        6.2085816432
  C         7.1105741380        9.3566429251        7.7442508181
  H         9.0757816841        9.2285335306        7.0406751896
  H         7.9296493082        8.9355343425        5.7621157658
  C         5.8426605483       10.2649856329        7.8006912729
  H         7.4588089223        9.4047715942        8.7418712824
  H         6.8162214337        8.3251099265        7.5603981105
  C         4.6077310457        9.6221249193        7.1578157035
  H         5.6749206266       10.5801208453        8.8378339477
  H         6.1203193489       11.1542626033        7.2614529311
  C         3.3610348227       10.4889589791        6.9194496189
  H         4.2709887214        8.7298293154        7.7490939214
  H         4.9807508036        9.2189031551        6.2498612210
  C         3.6837245662       11.7965955755        6.2184553684
  C         2.9864342577       11.2449071972        8.1267981352
  C         2.2465421896        9.7543475315        6.2186168963
  C         3.5161811003       12.9541250438        6.9911733903
  C         4.0175899486       12.2065073496        4.8966002996
  C         3.0557543913       12.6087581165        8.2148301781
  C         2.5034740512       10.6718121737        9.2507745606
  H         2.5804273337        9.2429936429        5.3705832912
  H         2.0958659762        8.9162540194        6.9263028989
  C         0.9857603915       10.5365967190        5.9541024233
  S         3.8766164017       14.4401772996        6.2402456939
  C         4.1106014969       13.5488861221        4.8043732803
  H         4.0655029371       11.4614147532        4.1499448506
  C         2.6728415263       13.2786630659        9.3820817148
  H         2.3502897753        9.6037293319        9.1852800752
  C         2.1930850020       11.2991965317       10.4090966337
  H         1.0943826953       11.5728735485        5.6794932417
  H         0.3990813767       10.6863705245        6.8402400726
  C         0.0120809056        9.7188298816        5.0734777781
  C         4.5931138714       14.3119204329        3.5744133082
  C         2.1986751358       12.6199889794       10.5172250811
  H         2.7139148877       14.3495348446        9.4385441132
  C         1.6689418771       10.9242064491       11.6717888913
  H        -0.9601087211       10.2586040917        5.2084763091
  H        -0.1330309239        8.7210078601        5.4785777736
  C         0.4525649077        9.7808245993        3.5956533265
  C         4.6134358164       15.7019386575        3.3916540991
  C         5.0865923823       13.5156740605        2.4207221405
  C         1.7166527212       13.3023093006       11.7888611460
  C         1.3597345865       12.0225251979       12.4626881653
  S         1.3579906642        9.3954046706       12.3758997069
  H         1.2175457997        9.0928519234        3.3048258629
  H         0.9139206911       10.7422864535        3.3900290693
  C        -0.8048981663        9.7818864634        2.6645913712
  N         4.1101393701       16.6356433516        4.2667091635
  C         4.9971362772       16.3019527641        2.1622466775
  C         5.4661352830       14.0794640930        1.1525633286
  H         4.9821016829       12.4662831393        2.4860112996
  C         0.5129091866       14.1814645753       11.4918230675
  C         2.8373187561       14.1521388853       12.5291256574
  C         0.8707835069       11.5810292896       13.7737613915
  C         0.8626085067       10.2235770239       13.8497440032
  H        -1.6519100650        9.3212191920        3.1768976472
  H        -1.1920218150       10.8521339563        2.6637433832
  C        -0.7652614169        9.1100703524        1.3433509054
  S         4.2078763784       18.1390001280        3.6064274179
  N         4.8003450028       17.7013141220        2.2244354618
  C         5.4462419979       15.6154098586        1.0259968917
  H         5.6620431573       13.4665330782        0.3345519676
  H         0.7350901875       15.0453595821       10.8455938152
  H        -0.0066302415       14.5877672810       12.4442208394
  C        -0.5820460467       13.5175389304       10.7183030589
  H         2.9057670727       15.1404613134       12.0640284155
  H         2.4398623001       14.3869580304       13.4545091500
  C         4.1338196594       13.5451514312       12.9750581731
  H         0.4564013697       12.2374437512       14.4953390552
  C         0.4353603684        9.5818444204       15.0721935049
  H        -1.5646057016        8.4653054408        1.1465028918
  H         0.0855338559        8.4694717509        1.3212708634
  C        -0.5379377173       10.1088568303        0.1501313417
  C         5.5893939821       16.3749460149       -0.1951218220
  H        -0.1108928502       13.3292857172        9.7550007955
  H        -0.8108818427       12.5910167143       11.2637694794
  C        -1.8125603547       14.4266190435       10.6229575115
  H         4.6919896443       13.0631949936       12.1409188817
  H         4.0462347725       12.6638321484       13.7117919208
  C         5.0830800805       14.5290513424       13.5754212032
  C         0.2614532532        8.1937652876       15.2738998554
  C         0.2785559048       10.3530512040       16.3600791408
  H        -1.5312100656       10.3568596663       -0.3570714117
  H        -0.1500730067       11.0932489138        0.3713145366
  C         0.2347151890        9.5065418154       -0.9485002408
  H         5.2123562363       17.3764250241       -0.1062337309
  C         5.8303738406       16.1171142699       -1.5040273180
  H        -1.9460153846       14.9954213782        9.6698512040
  H        -1.8498315373       15.1930998251       11.3879702667
  C        -3.0285731296       13.4922562313       10.5648105197
  H         5.5039955738       15.0321631433       12.7793550284
  H         4.5363984833       15.3119641776       14.1585945773
  C         6.2564346963       13.8073629668       14.3314519377
  N         0.6302861436        7.2382153786       14.3373800276
  C        -0.1708097156        7.6250456392       16.4164929097
  C        -0.2206019312        9.7799273154       17.5114692973
  H         0.4007020521       11.4505108186       16.4039530440
  H         0.5468853827       10.2120415556       -1.6667290456
  H        -0.3706331566        8.7125435279       -1.4585780036
  H         1.1511382128        9.1355198017       -0.6018788383
  S         6.2125404426       14.5306547321       -2.1867149242
  C         5.7002324171       17.2788848102       -2.4513794554
  H        -2.8555190539       12.7763708990        9.6937227645
  H        -3.0642384256       12.8680572655       11.4453825213
  C        -4.4378254844       14.2031613999       10.4450271789
  H         6.4500236337       12.8951560351       13.7196378912
  H         5.9074132303       13.4799078378       15.2800617750
  C         7.5652321212       14.5466403503       14.4514269735
  S         0.3421105114        5.6923911554       14.9332836653
  N        -0.1988257501        6.2348888730       16.3900402633
  C        -0.4622477014        8.3205448196       17.6115798534
  H        -0.6398316680       10.4704441438       18.3204110248
  C         6.1096436769       15.4309475081       -3.7047232140
  N         5.8822125622       16.7523168751       -3.6821389897
  O         5.4313397567       18.4842395915       -2.2326967064
  H        -4.9259861318       14.3102731269       11.4115305218
  H        -4.3186153370       15.1565372472        9.9499715243
  C        -5.2943335152       13.3044738294        9.4149681108
  H         8.4435941679       13.9281485928       14.8812118041
  H         7.9776000768       14.8679269680       13.4919890952
  C         7.4359037531       15.7886294375       15.3544180581
  C        -0.7577969094        7.5316870031       18.7198612027
  S         6.3267818854       14.8328575090       -5.3334346309
  C         5.6037951632       17.5963432022       -4.8148248614
  H        -4.7941027961       13.1535753963        8.4796648645
  H        -5.6289506264       12.3840802310        9.8030089663
  C        -6.6058345548       14.0786033223        9.1324811156
  H         7.7997763220       15.3688381995       16.3525591211
  H         6.3979552748       16.0699287441       15.6819049343
  C         8.4897955607       16.9198823992       15.0376140489
  H        -0.4371395786        6.5250463595       18.6587457889
  C        -1.3085276246        7.7705598859       19.9695086848
  H         6.0442614303       17.2920925023       -5.8156517670
  H         5.9750468090       18.5878892919       -4.6203301092
  C         4.1865205247       17.8780549381       -5.1064296590
  H        -7.3586617241       13.4410048869        8.7066574972
  H        -6.4343505613       14.8496405364        8.3438784287
  C        -7.3630538650       14.6006307312       10.3153976774
  H         9.0189122512       17.1950296932       15.9844934471
  H         9.2499571303       16.4786062196       14.3977598597
  C         7.7467490952       18.1160798890       14.4713013628
  S        -1.8143420388        9.2591711071       20.6945649618
  C        -1.2551152030        6.6424177832       20.9225055236
  H         4.0062547116       18.3282986309       -6.0525766008
  H         3.7989602331       18.4498630580       -4.3469020949
  H         3.6709471772       16.9431323798       -5.1797695058
  H        -6.8917208820       15.4680749246       10.7361689885
  H        -8.3155770789       14.9727525307        9.9455722662
  H        -7.5775373850       13.7454913969       10.9125146338
  H         7.3781580614       17.7859402743       13.5193159595
  H         6.9369119967       18.4144136926       15.0837987730
  H         8.4176517709       18.9760824993       14.3275851474
  C        -2.2783743751        8.3125026674       22.1039042690
  N        -1.8891064568        6.9924684320       22.0576758047
  O        -0.8358349191        5.5334380651       20.6502770744
  S        -2.9919546582        8.8822464116       23.6550863825
  C        -1.8872610860        6.0765909509       23.2136451683
  H        -1.8281697620        5.0268308327       22.8759220134
  H        -2.8315524905        6.0298718376       23.7458845881
  C        -0.7035599878        6.3870186770       24.1370029714
  H        -0.2128125855        5.4267999317       24.4820532739
  H        -1.1926832094        6.8712344889       24.9916037888
  H        -0.0143077785        7.0646453726       23.7400192620
