352
i =
  H        -1.7391994869       14.4203160695       14.6809169052
  C        -2.5007259810       14.0229829442       15.3021591122
  H        -3.1550632300       14.9137847027       15.4473649927
  C        -1.8796249696       13.4725308785       16.6449882065
  C        -3.0568953944       12.8031081334       14.5717436448
  C        -2.5199277594       13.7778789272       18.0082211151
  H        -1.7082199994       12.3836824946       16.4335089627
  H        -0.8632594610       13.9339812240       16.7927971042
  H        -2.3774594369       11.9922976306       14.4550412085
  H        -4.0468286892       12.4363327280       14.9356227478
  H        -3.1052279244       13.1710875131       13.5902197316
  C        -1.4892125069       14.0054347166       19.1836538418
  H        -3.0757831877       12.8898260719       18.3390164594
  H        -3.2330005932       14.6270724791       18.1404695765
  C        -2.1408519085       13.6657701037       20.5236148064
  H        -0.5289555665       13.4684896936       19.0808556122
  H        -1.2263943822       15.0582120603       19.1303409846
  C        -1.2911609405       12.8557867657       21.4379326861
  H        -2.9666756843       13.0006747329       20.3847507813
  H        -2.5129318365       14.5909612252       21.0030979305
  C        -0.2587367869       13.7326886070       22.1254213779
  H        -1.8305423514       12.3191833046       22.2371176606
  H        -0.8485311670       12.0447628898       20.9418528868
  C         0.8748780732       13.0124924542       22.9390730219
  H         0.2263062889       14.4149988210       21.4251495409
  H        -0.7336307802       14.4788864471       22.7692980198
  C         1.3620417164       11.7278296461       22.2958229362
  C         0.5182286433       12.3280914951       24.1983146984
  C         2.0850849256       13.9461132098       23.0637530707
  C         1.2381324184       10.6444543702       23.1467691802
  C         1.9692614871       11.3512387194       21.0593054286
  C         0.6833865443       10.9810197621       24.3939199502
  C         0.0937297006       12.9749055537       25.3800889277
  H         2.2993225490       14.4692905994       22.1244782572
  H         1.7546128844       14.7579846958       23.6988093922
  C         3.2880607750       13.2698339911       23.6795441951
  S         1.7481792579        9.1601528827       22.3860096778
  C         2.2198601312       10.0181919377       20.9653398704
  H         2.2711316395       12.1471248106       20.3556185360
  C         0.3061518821       10.3660579682       25.5272403984
  H        -0.0125381409       14.0334840574       25.4287978314
  C        -0.2240213883       12.3548958726       26.5404452942
  H         3.5784433541       12.5547709725       22.9068620420
  H         3.0153163733       12.5969926872       24.4600694772
  C         4.3774130004       14.2844129734       23.9824406448
  C         2.6022469054        9.3337810699       19.6707607400
  C        -0.1419416094       11.0264845297       26.6841080660
  H         0.2697785736        9.3138330750       25.4845762096
  C        -0.6008130712       12.7100800978       27.8749532677
  H         5.1165639250       13.9065847945       24.6604951365
  H         3.8510995884       15.0881926003       24.4503794334
  C         5.2102256912       14.6422691962       22.7482341039
  C         2.6626645905        7.9390644217       19.3670969781
  C         2.9173195876       10.2659542323       18.5259511528
  C        -0.5667340612       10.2615336754       27.8529369783
  C        -0.7621654519       11.5440417397       28.6183111264
  S        -0.8580499782       14.1738722545       28.5975817671
  H         5.7999101215       15.4787748814       23.0800418197
  H         4.7332605642       15.0777268058       21.9159629468
  C         6.1480832499       13.4384819911       22.3796794521
  N         2.4072666737        6.9780604793       20.3509995901
  C         2.9020156737        7.4818652080       18.0937827616
  C         3.3968729945        9.7248736511       17.2917580901
  H         3.1011890423       11.2995647593       18.7310479380
  C         0.6112055266        9.4425083654       28.4583658533
  C        -1.8433194154        9.5057492907       27.6120200620
  C        -0.9964152710       11.9173567757       29.9503978489
  C        -1.1409931153       13.2827364199       30.1121854496
  H         6.9725036521       13.3985401847       23.0057612734
  H         5.6152908663       12.5172825511       22.5659868742
  C         6.4115191490       13.5019925786       20.8548941161
  S         2.3716331770        5.5060367278       19.5932167289
  N         2.8138961037        6.0852268005       18.0970027260
  C         3.2155271105        8.2935545586       17.0196934766
  H         3.7356659889       10.4025000285       16.5126949184
  H         0.7641541553        8.4963847604       28.0169263111
  H         0.3321180478        9.1009674889       29.4108716279
  C         1.9260912401       10.1299387100       28.6671379618
  H        -1.6367817782        8.6933657503       26.9499766668
  H        -2.1138589504        9.0811526835       28.6153791346
  C        -3.0248048841       10.3557219205       27.1220566882
  H        -0.9989320809       11.0787936479       30.6706325617
  C        -1.5554075495       14.0021740289       31.3860147707
  H         5.9495957246       14.4441051269       20.5239965216
  H         5.9864588399       12.6887496085       20.3170891260
  C         7.8854995594       13.7425861689       20.4821050109
  C         3.5661954557        7.6555982840       15.7768178121
  H         2.4646628780       10.4928617523       27.7628465957
  H         1.7949189049       10.9453024307       29.4031890022
  C         2.8843022079        9.1418655875       29.3815261709
  H        -2.5914151312       10.9242541765       26.2621202190
  H        -3.0648099222       11.2268606248       27.7325532807
  C        -4.3133011517        9.6113359580       26.7158772121
  C        -1.5552243438       15.3778928102       31.5959555408
  C        -1.6908807014       13.1770901552       32.6154076622
  H         8.1578131766       14.7391846268       20.8041068457
  H         8.5886195714       13.0904510719       20.8975437464
  C         7.8650930915       13.7030612955       18.9382732166
  H         3.2806025371        6.6433128181       15.8028167864
  C         3.9810954967        8.1138061725       14.5565575219
  H         3.1505370518        8.3999161472       28.6748885348
  H         2.3340162191        8.6269945326       30.1290263643
  C         4.0801958751        9.8690038830       29.9668707528
  H        -4.1438784491        8.9047505390       25.9707157400
  H        -4.7329036532        9.0810775260       27.5514529037
  C        -5.4160219485       10.5096557901       26.2102459427
  N        -1.3699678883       16.3061691266       30.5385755613
  C        -1.8076557918       15.9710180276       32.8013925655
  C        -1.8396842966       13.7745662120       33.8792353397
  H        -1.6820662308       12.0771423450       32.5623647143
  H         7.8836316659       14.8117862284       18.5951680659
  H         8.6546279800       13.1453823166       18.4843490045
  H         6.8827230550       13.3811670638       18.5029955669
  S         4.1857344474        9.7502871353       14.0891182529
  C         4.1135901105        7.0564113243       13.4827156635
  H         4.3314440428       10.7969109639       29.4106705484
  H         3.9500740597       10.1630694554       30.9829119663
  C         5.4216263512        9.1455593895       29.8916307395
  H        -5.0079144488       11.1269792687       25.3523559228
  H        -5.7226453802       11.2369513063       26.9738835645
  C        -6.5942976893        9.6954256384       25.7255061338
  S        -1.3669063652       17.7709082083       31.2008686465
  N        -1.8831244219       17.3445943309       32.6568244743
  C        -1.9969925351       15.2946843449       34.0069576519
  H        -1.8614768251       13.1879085377       34.7908079389
  C         4.5759276052        8.9714354445       12.5624756869
  N         4.5477133909        7.6597917940       12.3736836080
  O         3.9040141450        5.8618401319       13.6935836601
  H         6.2696055221        9.7805677264       30.0977836515
  H         5.5019039296        8.6842829903       28.8962336633
  C         5.4595419466        7.9206739374       30.8016985362
  H        -6.3740705000        9.0926360807       24.8458688467
  H        -6.8451508121        8.9822846482       26.5471771339
  C        -7.7998841583       10.5863184543       25.5346412344
  C        -2.2772779088       16.0354587419       35.1877212238
  S         4.8327036682       10.0088242155       11.2319345037
  C         4.5575098848        6.8840155700       11.0430846269
  H         5.5731810548        8.3404691276       31.7934330774
  H         4.4749993529        7.4885989864       30.8119850200
  C         6.4830576694        6.8361843785       30.3884491285
  H        -7.6776477220       11.1530847343       24.6771338101
  H        -7.9684870128       11.3059410468       26.3404392384
  C        -8.9774395155        9.7291575372       25.2269024977
  H        -1.9690221862       17.0556938498       35.1452805279
  C        -2.9195598762       15.7601323977       36.3423183126
  H         5.2600786648        7.3800768669       10.3496260359
  H         5.0555245217        5.9075473726       11.2265858400
  C         3.1316915004        6.7520123093       10.4647806296
  H         7.4207551719        7.2835066410       29.9140908547
  H         6.0899198433        6.3636996813       29.4259290931
  C         6.6683188629        5.7155526188       31.4724311486
  H        -9.6127155886       10.1460085873       24.4961670800
  H        -8.6521839100        8.6823973549       24.8320672267
  C        -9.8275149529        9.5027375527       26.4241894955
  S        -3.6242184782       14.2075400855       36.7255726063
  C        -3.0175661994       16.7997625729       37.4010815972
  H         2.9204689163        7.4748606636        9.6417262037
  H         2.9527552125        5.8379180880        9.9586522280
  H         2.3673079666        6.8575303900       11.2548861531
  H         6.2545105951        6.0425719295       32.4024385932
  H         7.7254595371        5.6719583695       31.7731385884
  H         6.2749874656        4.7214069225       31.1820336719
  H       -10.8529519714        9.0954325763       26.0185540937
  H       -10.0903501607       10.4277109918       26.9496152834
  H        -9.4848766626        8.7359982888       27.0725355591
  C        -3.8546105770       14.9193451362       38.3496892866
  N        -3.7283814313       16.3113402032       38.3645693686
  O        -2.5311369393       17.9773476800       37.3121073610
  S        -4.5069305652       14.0763779254       39.7808053897
  C        -4.0866149773       17.1126610144       39.5052037680
  H        -4.4355106518       18.1148040870       39.2168416865
  H        -4.8372350738       16.6877066201       40.1431518611
  C        -2.8378450345       17.2839322813       40.4086406904
  H        -2.9214473750       18.1392328003       41.0239793366
  H        -2.7150155736       16.4257230174       41.0249742885
  H        -1.8981257244       17.3723456898       39.8351571083
  H         6.9182378816       11.2347458499        3.5205688347
  C         7.5154730592       10.3328973216        3.3302634647
  H         6.7983858661        9.5568817062        3.5851137513
  C         8.5963094426       10.4131871396        4.3993259259
  C         8.1638835629       10.2668806103        1.9267608159
  C         8.0422573868       10.5618139918        5.8117180566
  H         9.2257858693        9.5465451774        4.3240317791
  H         9.2289095000       11.2327911581        4.1869316212
  H         7.4502392212       10.1248377697        1.1032701647
  H         8.8306091106        9.4768486828        1.7498316591
  H         8.7491871532       11.2071941341        1.7476319585
  C         7.5009597942        9.2335561929        6.4875898030
  H         8.8017903828       11.1370456288        6.3478083181
  H         7.2555122011       11.2443156062        5.7186646471
  C         6.5209022482        9.4478850871        7.6609739648
  H         8.2818204990        8.5607604916        6.8227932416
  H         6.8625520050        8.6225422051        5.8347169619
  C         5.2137985185       10.2355758894        7.4485308641
  H         7.1535632455        9.9767509352        8.3712663674
  H         6.2209033926        8.5108945542        8.1239948370
  C         4.0957777269        9.6118477355        6.6160238727
  H         4.8265902060       10.6132807439        8.3866931299
  H         5.5360480320       11.0721345515        6.9102170762
  C         2.8817623868       10.5219667631        6.5556536522
  H         3.8088055878        8.7029963706        7.1199364802
  H         4.4332502335        9.2960989654        5.5938356354
  C         3.2881698750       11.7975050988        5.9418878049
  C         2.4116460772       11.2039487099        7.8282935199
  C         1.7010999810        9.8195701405        5.7800639431
  C         3.0660350701       12.9325594700        6.7459641187
  C         3.9705611011       12.2232772876        4.8190778562
  C         2.5820700527       12.5551453452        7.9913733862
  C         1.8810944401       10.6071051031        8.9655518756
  H         2.1631621738        9.4116441669        4.9160964724
  H         1.3265703198        8.8825011224        6.1908470972
  C         0.5310169099       10.7855722032        5.3516247865
  S         3.5178080701       14.4521960457        6.0645021637
  C         4.1802622817       13.6091925124        4.7894985006
  H         4.2987359320       11.5007981501        4.1260108773
  C         2.1574448171       13.2092721151        9.1548280220
  H         1.7061811123        9.5288954753        8.9140179872
  C         1.6831196425       11.2446658471       10.1452862647
  H         0.8560516908       11.4794581995        4.6943799480
  H         0.1595358600       11.2325419251        6.3066428726
  C        -0.6173547833       10.0820081435        4.6081890092
  C         4.6866566976       14.3508790883        3.5867407766
  C         1.7857159050       12.5549428132       10.3447604652
  H         2.2568405729       14.3366871025        9.1992493415
  C         1.3774752734       10.7982556150       11.4294896319
  H        -1.4058158771       10.8154835173        4.6930158799
  H        -1.0349239851        9.2845960080        5.1458284924
  C        -0.3071957296        9.7752189066        3.2052618553
  C         4.5284263738       15.7629155734        3.3136860242
  C         5.1303253137       13.5685454909        2.3866127242
  C         1.4661226758       13.1705150248       11.6518019109
  C         1.1733974467       11.8435849131       12.2854646317
  S         1.0326539034        9.2235336544       12.0309979000
  H         0.3310006886        8.8840067035        3.2780181699
  H         0.2976049671       10.5701165991        2.7641785349
  C        -1.4385228249        9.5966641643        2.2327311800
  N         4.3500291320       16.7946626500        4.2539986938
  C         4.7627764673       16.2818546083        2.0502784117
  C         5.4838750135       14.0754402017        1.1259858928
  H         5.3917892664       12.5231051320        2.5251825519
  C         0.2048492310       14.0784350257       11.7206822749
  C         2.7926720782       13.8093190939       12.0495590931
  C         0.6489515370       11.3555896257       13.5050186403
  C         0.6183000498        9.9874687482       13.5041308438
  H        -2.1514747907        8.8660229129        2.4401436517
  H        -1.9817275384       10.5277667784        2.1868802244
  C        -1.0279120203        9.0273644401        0.8423778579
  S         4.1072034365       18.2342221008        3.4798507582
  N         4.4781025617       17.6960090280        1.9740153129
  C         5.1858963992       15.5513456179        0.8783922105
  H         5.9472986529       13.4162419372        0.3639141150
  H         0.2532159321       14.9150722382       10.9887587579
  H         0.2268157293       14.5698580404       12.6695587974
  C        -1.0909344565       13.3437124019       11.4289351913
  H         3.5580098798       13.1165905684       11.7343544135
  H         2.8782300004       14.6841628221       11.4441456972
  C         3.0725717482       13.9793778105       13.5719765315
  H         0.2391253193       12.0993688997       14.2896550836
  C         0.2068487941        9.2727402285       14.8141543084
  H        -1.9484888104        8.6685081291        0.3962618669
  H        -0.4104335752        8.1630412943        0.9724774598
  C        -0.4456589760       10.0005375582       -0.1350575184
  C         5.4643856850       16.2662538780       -0.3460283013
  H        -0.8548311219       12.8332279955       10.5287606601
  H        -1.4689373803       12.6420861929       12.1898856281
  C        -2.2518032486       14.3048779427       10.9968000710
  H         2.8204739186       13.1224709100       14.2153874739
  H         2.3619284999       14.6566060400       14.1092435546
  C         4.4336966247       14.3487639352       13.9783193140
  C         0.2693586152        7.8807319907       14.9930299321
  C        -0.0606949982        9.9849978983       16.0952313749
  H        -0.4163429885       10.9902817564        0.3869013509
  H         0.5756355484        9.6672842608       -0.3926592968
  C        -1.2851830171       10.3766301042       -1.3084805874
  H         5.2346377785       17.3230329342       -0.4268401896
  C         5.7671736287       15.8398626726       -1.5974339773
  H        -1.8865541355       14.9475739890       10.1712623476
  H        -2.5289652071       14.8824252531       11.8779653969
  C        -3.3830570049       13.4406364661       10.2781121813
  H         4.8350098040       15.1038241764       13.3337019106
  H         4.4612100412       14.7991110330       14.9489581941
  C         5.4695023888       13.1192950065       14.1317468079
  N         0.5961619570        7.0300378749       13.9547073255
  C        -0.0149792629        7.2161278211       16.1732114414
  C        -0.2553283241        9.2923257677       17.3204430213
  H        -0.0967260158       11.0549394815       16.0805557505
  H        -2.1878966329       10.9451831813       -1.1314024821
  H        -1.4984841151        9.5112331362       -1.8730610891
  H        -0.7093859774       11.0683956941       -1.9052159652
  S         5.9689129860       14.2176487036       -2.0940967600
  C         5.7264673594       16.8512341327       -2.6827134560
  H        -2.8875766306       12.8462087902        9.5030721296
  H        -3.8855901187       12.7350713227       10.9665501180
  C        -4.5334292397       14.2909037633        9.7533615335
  H         5.5398330017       12.3133485634       13.4241900242
  H         5.2251375179       12.5807982661       15.0744439260
  C         6.8699087516       13.6148744491       14.1972375484
  S         0.4320817555        5.4718465701       14.5309365150
  N        -0.0082902240        5.8430566197       16.0440106404
  C        -0.3898020423        7.8481520280       17.3470251408
  H        -0.4249604457        9.8622017775       18.1995172367
  C         6.1221809789       14.8358925300       -3.7297648001
  N         6.0216719951       16.1613282271       -3.8351963452
  O         5.7142888680       18.0766312073       -2.5712792185
  H        -4.8257751000       15.0167229280       10.5607295087
  H        -4.2720184173       14.8500458660        8.8836482526
  C        -5.6968907616       13.4900150188        9.2598135890
  H         7.5776638557       12.7840428713       14.1044848314
  H         7.0692308600       14.2614731943       13.3939094493
  C         7.3042744722       14.4880895151       15.3958512340
  C        -0.5484592624        7.1601431739       18.5332105771
  S         6.3528692733       13.8558255216       -5.1605770401
  C         6.1611710465       16.8493936295       -5.1266378418
  H        -5.3269486633       13.0865431724        8.3289725981
  H        -5.8918530395       12.6762394631        9.9901862952
  C        -6.9077469165       14.2969127460        8.9066191309
  H         8.0690547179       13.8450378162       15.8945196622
  H         6.5381543565       14.6013676866       16.1530806697
  C         7.9438147704       15.8333665643       14.9886695104
  H        -0.3159610828        6.0789441486       18.4339809805
  C        -1.0387743505        7.4486251597       19.7838873497
  H         6.9924868414       16.4045002378       -5.6669214991
  H         6.3432202094       17.8956718888       -5.1220273921
  C         4.8677164253       16.7225564164       -5.9319576643
  H        -7.3631335999       13.8398921692        8.0892788649
  H        -6.7130746826       15.3168634316        8.6912343868
  C        -7.9304302155       14.3299025989       10.0429548801
  H         8.6304256296       16.0828972695       15.7990819140
  H         8.6487565349       15.6770675863       14.1098413821
  C         6.9936628426       16.9995609864       14.6323088145
  S        -1.8169080671        8.9738432780       20.1835207971
  C        -1.0008147416        6.4408407798       20.8687157245
  H         4.6442387001       17.6671451847       -6.4615820980
  H         4.0575022407       16.5702921773       -5.2045967629
  H         4.8352945241       15.9096419150       -6.6217252211
  H        -8.8066621787       14.7673647102        9.5763715370
  H        -8.2204894713       13.2986332862       10.3140409700
  H        -7.6559903891       15.0378538109       10.8567334177
  H         5.9832570069       16.8309510129       15.1357399666
  H         7.3835301878       17.9371785215       15.0458001541
  H         6.9480213725       16.9941608941       13.5272181361
  C        -2.0252485092        8.1938422847       21.7754119117
  N        -1.5502707844        6.9460303293       21.9200821780
  O        -0.6380833861        5.2663923997       20.6898573519
  S        -2.5762230415        8.9849983938       23.3090811542
  C        -1.5721115294        6.1818302223       23.1699997013
  H        -2.0615474342        5.1938742073       22.8998660502
  H        -2.2829010843        6.6164314173       23.9436889535
  C        -0.1691969947        6.0696560031       23.7635732735
  H        -0.1288570320        5.5045004222       24.6870689767
  H         0.0351542504        7.1446966543       23.9597201705
  H         0.5663627746        5.6635164321       23.0553836762
