352
i =
  H        -3.3939604539       14.9449973171       16.5904614220
  C        -3.1187053038       13.8532917572       16.6205389484
  H        -3.9701214796       13.2594994240       17.1009898894
  C        -1.8467006832       13.6747388644       17.5778020495
  C        -2.6929023502       13.3091560967       15.1881492944
  C        -2.1708988454       14.0754382245       19.0050036060
  H        -1.6393883491       12.6158638476       17.3742086351
  H        -1.0662166518       14.3257529397       17.1230439349
  H        -2.3152254794       12.3021962302       15.1684347569
  H        -3.5464227904       13.2382174517       14.4850001591
  H        -1.9721250641       13.8285121726       14.6872597540
  C        -1.8333389942       13.0134252325       19.9349891670
  H        -3.2092524866       14.3126896003       19.0891458820
  H        -1.5058866150       14.9601641572       19.2284565153
  C        -2.2897280037       13.3689959759       21.3756980825
  H        -2.3190175796       12.0140133895       19.6888339861
  H        -0.8092414036       12.8617270673       19.8043650937
  C        -1.3993041048       12.7790492104       22.5110255181
  H        -3.2688604955       12.9411052127       21.5217416736
  H        -2.5393552615       14.4669184279       21.4161924379
  C        -0.1544168338       13.7149781977       22.6724817012
  H        -1.8177372484       12.7626226937       23.4912083899
  H        -1.1500420591       11.7574776799       22.3341840561
  C         1.0943117432       13.0228417148       23.4167904843
  H         0.2317379952       14.0241819616       21.7286162866
  H        -0.4087976977       14.6376415757       23.2503214749
  C         1.3916467385       11.7490337282       22.7901964890
  C         0.6419460798       12.4323815024       24.7564936849
  C         2.3434640881       13.9095103379       23.5686917828
  C         1.1563671686       10.7075728590       23.6168197844
  C         1.7949721924       11.2719138992       21.5592687192
  C         0.6864134517       11.0971805495       24.8348226339
  C         0.2460216741       13.0048715888       25.9446195592
  H         2.6123085087       14.2542163686       22.5627693818
  H         2.0342100927       14.6648137308       24.2309610573
  C         3.6621695129       13.2883856527       24.1239884965
  S         1.5887145148        9.0934389508       22.9774434956
  C         2.0529271562        9.9158460251       21.4864297122
  H         2.0162485249       11.9958499478       20.7533279898
  C         0.3693838046       10.3844717944       25.9715296649
  H         0.1650600000       14.0680150982       26.0049142772
  C        -0.1711731233       12.3268519839       27.0169532725
  H         3.8456560997       12.1992036217       23.7914498032
  H         3.4858371890       13.1560201290       25.1486807561
  C         4.8441900543       14.1655795657       24.1496535210
  C         2.4770276861        9.1073534884       20.2867746501
  C        -0.1775971618       10.9738158014       27.0912479593
  H         0.3973057855        9.2996844751       25.8637530835
  C        -0.5856912669       12.7129936491       28.2158099263
  H         5.4679147551       13.9569508252       24.9444258920
  H         4.3626448954       15.0625577026       24.4404234962
  C         5.5295897581       14.2271334064       22.7833164135
  C         2.4204071544        7.7246151371       20.1190057099
  C         2.9636540570        9.8307179978       19.1047845762
  C        -0.6072204412       10.3601120434       28.3605871273
  C        -0.7839330527       11.6297781418       29.0485812615
  S        -0.9102156636       14.1984531264       28.9788275133
  H         6.2770326811       15.0711052122       22.7339599002
  H         4.7439540113       14.6153588931       22.2017264256
  C         5.9743971913       12.8902090247       22.0986423960
  N         1.8896444794        6.8667086538       21.0535875223
  C         2.7376794474        7.0760759825       18.9312560722
  C         3.1863708138        9.2218909299       17.8786236290
  H         2.7651486046       10.9607838797       19.1720966205
  C         0.3703825918        9.4453572257       29.0749442508
  C        -1.9461823113        9.6173839827       28.2105609730
  C        -1.2284201982       12.0273494434       30.3129076730
  C        -1.1846758373       13.3766877383       30.5402253897
  H         6.2023441804       12.0939691710       22.8665340566
  H         5.0895124980       12.4477867716       21.5338904285
  C         7.0048810095       13.0206449756       20.9506471205
  S         2.1134748349        5.3755431971       20.4687459076
  N         2.6671893368        5.7025238614       18.9384147192
  C         3.0507884497        7.7823918765       17.7899877254
  H         3.3814375177        9.9738186936       17.0991481015
  H         0.6896274943        8.8859708458       28.1988321088
  H        -0.2053982904        8.7523383032       29.8229477723
  C         1.4992221012       10.2288960775       29.6975058602
  H        -1.7766695667        8.7295123841       27.6235758039
  H        -2.2052033322        9.2987953018       29.2335525813
  C        -3.0437140369       10.4753214230       27.5286956596
  H        -1.3797592452       11.2578421955       31.1416081239
  C        -1.5938000625       14.1821132474       31.7419196322
  H         7.5964862104       12.1286070654       20.8526715114
  H         7.6971263576       13.7468224598       21.1640322820
  C         6.2374287102       13.3228077045       19.6492588939
  C         3.1276534507        7.0093983961       16.5501439833
  H         1.7811586201       10.9491335166       28.8378567080
  H         1.3387371942       10.8503676815       30.7055848378
  C         2.6976769078        9.2852112187       30.0691624255
  H        -2.7798432312       11.0879055126       26.5732338205
  H        -3.2637825151       11.2658252843       28.2233994027
  C        -4.3141544168        9.5733851210       27.3166264663
  C        -1.6646237802       15.6234406355       31.8528440310
  C        -1.5964378823       13.4212807287       33.0011679235
  H         5.4903929623       12.5380756615       19.2810330300
  H         5.4881277099       14.0730457512       19.8299836494
  C         7.2690106307       13.6708503682       18.6872258827
  H         2.9339735417        6.0198452759       16.5987746797
  C         3.3756920823        7.2991670126       15.2475693216
  H         2.9299724615        8.7042209265       29.2372786020
  H         2.3297274467        8.5793040995       30.8416735273
  C         3.9315282463       10.0518766994       30.5781591398
  H        -4.2095269314        8.6503298446       26.8516341408
  H        -4.7348613320        9.3619872277       28.2445243283
  C        -5.4810888973       10.3790403139       26.5809299874
  N        -1.5247571460       16.5260190786       30.8467582414
  C        -1.8928495372       16.2344174320       33.0825995706
  C        -1.9676015660       14.1282880682       34.1907077870
  H        -1.5508330636       12.3713060532       33.0653235203
  H         7.8142657743       14.6075365654       18.9139607450
  H         8.0336984028       12.8682847318       18.4273103983
  H         6.8934258063       13.7369605143       17.6248810446
  S         3.6334071015        8.9209035221       14.6632746402
  C         3.5532986760        6.3413440602       14.1588639833
  H         3.9420210363       10.9902587372       30.0417933852
  H         4.0411622057       10.1580182564       31.6795916300
  C         5.2733104128        9.3173380851       30.2150737853
  H        -5.0617319913       11.0750215082       25.8985881739
  H        -6.1267367342       10.8509213240       27.1981942447
  C        -6.3622676431        9.4636526919       25.7215461254
  S        -1.6186186008       17.9952665791       31.4315513336
  N        -1.9575156426       17.6586949341       32.9575050700
  C        -2.1672724778       15.6071882838       34.2631640752
  H        -1.9974695727       13.6206434182       35.2270282113
  C         3.8664752508        8.3046705691       13.0133113533
  N         3.8412695596        6.9767045911       12.9924211200
  O         3.5134946435        5.0842712795       14.4988427602
  H         6.0313472598       10.0958200355       30.3667745457
  H         5.3348634173        9.0731432256       29.0542731941
  C         5.4725757844        7.9719062242       30.9275045579
  H        -5.5364405113        9.1526933276       24.9803084093
  H        -6.6068462498        8.5704791909       26.3800579874
  C        -7.4773796964       10.1970047486       25.0148823610
  C        -2.5427916288       16.2808696213       35.4504628405
  S         4.3811766388        9.1980460391       11.6032320919
  C         3.8395472358        6.2191907869       11.8431429487
  H         5.8733262226        8.0035860544       31.9574993924
  H         4.3887917722        7.5850790810       31.0225224785
  C         6.2484875098        6.8278339333       30.2187684394
  H        -7.2101803047       10.0812440507       24.0000420964
  H        -7.4402687960       11.2756094628       25.3739923872
  C        -8.8488558555        9.6703174677       25.4934410112
  H        -2.3849530510       17.3382987560       35.4026581992
  C        -3.0044003694       15.8607951615       36.6274997039
  H         4.6264499193        6.6221027946       11.1648621705
  H         4.2317578912        5.1742532268       11.9521766655
  C         2.4057465530        6.1808114219       11.2052680455
  H         7.3106244889        7.1422779568       29.9336531279
  H         5.7397824681        6.6115974352       29.2685586293
  C         6.0865981599        5.4487389004       30.9692473541
  H        -9.5559570476        9.8840789331       24.6291834199
  H        -8.8785644724        8.6451829247       25.6590730892
  C        -9.3620799738       10.3815260228       26.7951891607
  S        -3.3803997143       14.2544089854       37.0340745595
  C        -3.2090621537       16.8593329269       37.7248485062
  H         1.8993832365        7.1472554866       11.0130443942
  H         2.3677263303        5.5618529436       10.2516438550
  H         1.6062777162        5.6192985055       11.8358732661
  H         5.1385855422        4.9754482514       31.1517706964
  H         6.5199549021        5.4579956879       31.9254051800
  H         6.6832905600        4.7799849735       30.4171307920
  H        -9.9077674501       11.1106687784       26.3166616884
  H        -8.5757973018       10.7029284169       27.4351570348
  H       -10.1445182647        9.7962653750       27.3114032078
  C        -3.7679234619       14.8635328473       38.7084115710
  N        -3.7082032324       16.2154904607       38.7866205982
  O        -3.1098057731       18.0968317636       37.5416609582
  S        -4.3731347603       13.9422136910       40.1340570943
  C        -3.9695656192       16.9584012309       40.0706310882
  H        -4.1969883982       17.9799964663       39.9084200421
  H        -4.8012488401       16.6242449414       40.6566109009
  C        -2.7057371912       16.8585027644       40.9606563622
  H        -2.1085905686       16.0727870595       40.4429275377
  H        -2.2494737868       17.8535766995       40.8868471861
  H        -2.8184938858       16.5765063417       41.9684517263
  H         7.0948792662       11.1243418849        2.7180800069
  C         7.7256225429       10.2901578202        2.9347447111
  H         7.1052334670        9.3995665979        3.0430098747
  C         8.5994260887       10.2926819070        4.3167864323
  C         8.6011349882       10.1101164187        1.6884501451
  C         7.9591825394       10.5936340453        5.6088378925
  H         9.0192916104        9.3472538841        4.4354764531
  H         9.4810921327       10.9739510667        4.3210184530
  H         7.9400321684        9.8061123309        0.8323117029
  H         9.3052449297        9.2671040037        1.7379801198
  H         9.1864290784       10.8259462353        1.1975900730
  C         7.0865926199        9.3682353589        6.1336319783
  H         8.5554057837       10.8540306078        6.4973157414
  H         7.2875851434       11.4098063905        5.6203146198
  C         6.6482444788        9.5314418175        7.6082193577
  H         7.7434185796        8.5349461159        6.3462908377
  H         6.2431761656        9.3488569204        5.4820764363
  C         5.4431041176       10.4596709269        7.7782700052
  H         7.4351202582        9.7909045547        8.3534815067
  H         6.4047480585        8.5326034595        7.8675574851
  C         4.0949203925        9.7857760750        7.2508624601
  H         5.2168028068       10.4943838774        8.8913674650
  H         5.6932132297       11.4670194338        7.4329463070
  C         2.8626499138       10.8086626120        7.1191496360
  H         3.7252879903        9.0202691535        7.9136281665
  H         4.1037025172        9.1800324243        6.2890018271
  C         3.2147110064       12.1756693889        6.4230335860
  C         2.4573092529       11.4986937048        8.4459433334
  C         1.6346584751       10.0630478008        6.5070760103
  C         2.9759786320       13.2651182477        7.2344483724
  C         3.7377389117       12.4557705069        5.1919161967
  C         2.4047436034       12.8386337318        8.4826237481
  C         2.0356712668       10.8349603871        9.6190177858
  H         1.8191215984        9.4634637108        5.5957003612
  H         1.2147804964        9.3480502449        7.1617622958
  C         0.4134850704       11.0558318396        6.0983463369
  S         3.4631724634       14.6749450236        6.3959507315
  C         3.8316315473       13.7841617008        5.0003730982
  H         3.9659066627       11.6831867468        4.5072173632
  C         2.0552967333       13.3611756466        9.6612971842
  H         1.9985607686        9.7184738538        9.6885280430
  C         1.5275229389       11.4094996872       10.7251371226
  H         0.8338590887       11.9447923503        5.7131968021
  H        -0.0091425180       11.3148248281        7.0446891940
  C        -0.5643988692       10.3679451517        5.1677125856
  C         4.3372778304       14.5215879079        3.8151648270
  C         1.5671220859       12.6977053595       10.7981253688
  H         2.1540872043       14.4679237515        9.6484367769
  C         1.0557573062       10.9773548936       11.9544506637
  H        -1.6072225414       10.5702667927        5.2299277744
  H        -0.5214306455        9.2804165371        5.5960727011
  C        -0.1768518133       10.4196378937        3.6881550578
  C         4.1925474661       15.8916689111        3.4767776364
  C         4.9072182851       13.6346039473        2.7400696965
  C         1.1228528190       13.3693910982       12.0649056041
  C         0.7892284576       12.0058762754       12.8152156674
  S         0.7308423658        9.4917370090       12.6351933966
  H         0.3549240881        9.4910866123        3.4240879156
  H         0.5180342426       11.1650052515        3.4125010215
  C        -1.2739987579       10.2600392034        2.6836695458
  N         3.9444957239       16.8916898109        4.3909949653
  C         4.5501558762       16.3634252594        2.2046767913
  C         5.1479282389       14.1477900604        1.4597577889
  H         4.8794405186       12.6213935879        2.9037300662
  C        -0.1927946203       14.2457063746       11.7619746542
  C         2.1173132031       14.1659736873       12.8858790473
  C         0.2290148587       11.6013173148       14.0058473353
  C         0.2102266604       10.2507304745       14.0812838531
  H        -1.7643197143        9.3206105634        2.8946963309
  H        -1.9657142280       11.1582126073        2.7125271540
  C        -0.7533534492       10.0623426229        1.2941942265
  S         3.9449103870       18.3217693339        3.5974117583
  N         4.3263328299       17.7202005187        2.1968079703
  C         4.9718350165       15.5862230107        1.1634634875
  H         5.5167557610       13.5399157043        0.6801242081
  H         0.1782285881       15.2246754917       11.2818839506
  H        -0.4408604111       14.6556722822       12.6906550736
  C        -1.3167674891       13.4732795469       11.0835444978
  H         2.5053920544       14.9667627220       12.2656067262
  H         1.6888583853       14.6183136069       13.7709896933
  C         3.3380638416       13.2968132630       13.3254368804
  H        -0.0862389860       12.2930179090       14.7495626036
  C        -0.0123705079        9.4322692229       15.2388021401
  H        -0.3822115212        9.1360754574        1.2645724167
  H         0.0584027177       10.7348594871        1.0545490449
  C        -1.8392621419       10.1240003569        0.1504455704
  C         5.1618153020       16.2310268180       -0.0580396413
  H        -1.1364895757       13.0883352537       10.0976090863
  H        -1.7853947690       12.7052873183       11.7942409788
  C        -2.4982430634       14.3788820309       10.6853202148
  H         3.7801847038       12.8140886400       12.5171179153
  H         3.1039787989       12.5177554311       14.0360136901
  C         4.5728181482       14.0617174069       13.8327158129
  C         0.0601894867        8.0491657062       15.3678568607
  C        -0.2646851518       10.1631209004       16.5012957867
  H        -2.4703387973        9.3483472132        0.2134732920
  H        -2.4680265821       10.9321690864        0.3574794623
  C        -1.2115236020       10.4893935710       -1.2672853554
  H         5.1098006679       17.2796815923        0.0655881492
  C         5.5169951340       15.7838983687       -1.3080414727
  H        -2.1494595032       15.2826433215       10.1007647303
  H        -3.0856912993       14.7254584162       11.5311584058
  C        -3.4086436907       13.6311560018        9.7989385505
  H         5.0175769327       14.8012259978       13.1274943921
  H         4.3328604826       14.6945730123       14.7181718848
  C         5.7497170202       13.1789944905       14.2457217574
  N         0.3884905297        7.2567259039       14.2850962074
  C        -0.2632207912        7.3971437295       16.5337683447
  C        -0.5396317248        9.4554652365       17.7091464564
  H        -0.0748402606       11.1746853508       16.6486371427
  H        -0.2018048028       10.2055334309       -1.2394848125
  H        -1.4272362297       11.4328130827       -1.7347726257
  H        -1.6011954699        9.8132909521       -1.9517909613
  S         5.7983527134       14.1860029176       -1.8118987525
  C         5.4924470030       16.6834566994       -2.4549623666
  H        -2.9490659474       13.0261233095        9.0346484305
  H        -3.7171714064       12.8071757011       10.4434997069
  C        -4.6589323919       14.3479723164        9.4807198902
  H         5.8700232244       12.3952196278       13.6044820533
  H         5.4173932130       12.6574400076       15.1825289998
  C         7.0442367818       13.8758017396       14.5022725750
  S         0.3397523363        5.7094521174       14.8664585179
  N        -0.1469765862        6.0351810617       16.3583771647
  C        -0.5163825734        8.0459952824       17.7759876603
  H        -0.6569553674       10.0554840128       18.5759585619
  C         5.8954658649       14.7680421312       -3.4142829384
  N         5.7801730456       16.0827491923       -3.6100947492
  O         5.2432986106       17.9371294011       -2.3426462710
  H        -4.9321684880       14.5839401717       10.5288554023
  H        -4.4495793523       15.2995405318        8.8781424206
  C        -5.6350798854       13.3813349893        8.7671103366
  H         7.6748585539       13.1019684260       14.9317787222
  H         7.5392078257       13.9771136715       13.5443320612
  C         7.0532973104       15.2235947229       15.2656845323
  C        -0.7075597981        7.2379714008       18.9035498654
  S         6.2192811684       13.7092217018       -4.8632852583
  C         5.8307951075       16.7226793982       -4.9122159906
  H        -5.3331043917       13.1162929387        7.7720044699
  H        -5.7046159844       12.4230204166        9.1680977289
  C        -7.0167708367       13.9836065057        8.6890155845
  H         7.9825153734       15.1195318100       15.9428926434
  H         6.1958886898       15.5193468975       15.9127385547
  C         7.0809748938       16.4181509578       14.2958611477
  H        -0.4641078622        6.2525461879       18.9030671058
  C        -1.1390321406        7.5621702081       20.1554137812
  H         6.6404887486       16.3643450162       -5.4537748342
  H         6.1817220036       17.7851873388       -4.8045915009
  C         4.5167460016       16.7640852013       -5.6284016933
  H        -7.7003459226       13.5519816472        7.8941156727
  H        -6.8267252958       15.0259110123        8.6057477414
  C        -7.7909927924       13.6979617264        9.9533145947
  H         7.0220152241       16.0003537867       13.3300415660
  H         6.2387721072       17.1713365724       14.5635064141
  C         8.1791995855       17.4763112169       14.6599290309
  S        -1.2885946151        9.1250654265       20.9032218115
  C        -1.3939809650        6.4308203618       21.0849625797
  H         4.6228691875       16.0827604770       -6.6223591249
  H         4.3763623730       17.7950141783       -6.0444661535
  H         3.5795361515       16.6051616019       -5.0253409957
  H        -7.4249676847       14.3824700680       10.7192283029
  H        -8.8801526801       13.8819665082        9.8809152275
  H        -7.8597640718       12.6278453665       10.4320724568
  H         7.7574845648       18.0804465632       15.4318647576
  H         9.0156549552       16.9981679976       15.1371314794
  H         8.4429544268       18.1214777271       13.8431458359
  C        -1.8439245001        8.2456115585       22.3270061083
  N        -1.9023305287        6.9241623302       22.2176531991
  O        -1.2892688076        5.2391207459       20.8863856481
  S        -2.4847964153        9.0809226344       23.7469542024
  C        -2.1321967026        6.0967307391       23.3548059578
  H        -2.6517156248        5.1341773265       23.1368620961
  H        -2.8535696277        6.6495199182       24.0323777490
  C        -0.7628735614        5.8589994176       23.9456048167
  H        -1.0358679997        5.0679595194       24.4995250934
  H        -0.4910263587        6.7149496655       24.3532424357
  H        -0.0334532254        5.5782938622       23.1725496172
