352
i =
  H        -3.2958981455       14.8025184570       16.4154586752
  C        -2.8322293923       13.7906497169       16.3317947615
  H        -3.6287769197       13.1953129215       16.5691583437
  C        -1.7397832182       13.4660150904       17.3884474999
  C        -2.5617809256       13.5180442340       14.8184117531
  C        -2.0268683016       13.9426493920       18.7686613633
  H        -1.5010312888       12.4329906226       17.3439943868
  H        -0.8268847816       13.9576380721       17.0068009445
  H        -1.7953008374       14.1613219062       14.4153822726
  H        -2.3289527685       12.5012711565       14.6112177953
  H        -3.5035635890       13.7141940906       14.3097588051
  C        -2.0080844027       12.9467371718       19.8959870245
  H        -3.0275182153       14.3655687127       18.6266662819
  H        -1.4755784635       14.8035012123       19.1589083130
  C        -2.3333202965       13.6138381561       21.2940946350
  H        -2.8341634663       12.2877615997       19.5709966145
  H        -0.9989838813       12.3936140647       19.8263141527
  C        -1.4606236221       13.0125434729       22.4249953790
  H        -3.3652727713       13.4896435643       21.5781329117
  H        -2.1045281340       14.6907213490       21.2610818716
  C        -0.1325737091       13.7956356481       22.6143556275
  H        -2.0384188844       12.9709620523       23.3086701664
  H        -1.2596361994       11.9917442840       22.0864241417
  C         1.1368532138       13.1108746127       23.1397103937
  H         0.1458962949       14.3233859322       21.6963230657
  H        -0.4140197114       14.6371584232       23.1665922272
  C         1.4045677603       11.7216477520       22.4803852480
  C         0.7842279695       12.4509093681       24.4386323113
  C         2.3398097224       14.0897006000       23.2654575573
  C         1.0961701133       10.6440894097       23.3169273734
  C         1.7656108523       11.2444803350       21.1948153525
  C         0.6693376672       11.0991838386       24.5648439015
  C         0.4251784203       13.1069431612       25.6710061905
  H         2.4750555775       14.5575269925       22.2680491107
  H         2.2621813181       14.9351434538       23.9369395314
  C         3.5921475817       13.3186533407       23.6999289608
  S         1.4407413288        9.0707072394       22.6860814015
  C         1.9324990321        9.9020623431       21.2495388523
  H         2.0020711787       11.9935945564       20.4595082440
  C         0.3359599302       10.4798933933       25.7208990868
  H         0.3410775014       14.1939718807       25.6695691355
  C         0.0035336594       12.4519549547       26.8163166681
  H         4.0170563251       12.7621089363       22.8448261485
  H         3.2908018103       12.6267120459       24.4919239880
  C         4.7270904109       14.1979744872       24.2050698484
  C         2.4754778748        9.1847760896       20.0352180752
  C        -0.0330885097       11.1080216534       26.8906384792
  H         0.0365328877        9.4994886795       25.7554374088
  C        -0.4468421877       12.8451053046       28.0799075605
  H         5.3537623601       13.5836916497       24.8549380458
  H         4.5065407608       15.0526100695       24.8007304394
  C         5.5145680159       14.6372728972       22.9771284922
  C         2.5316260677        7.8111499102       19.7753672095
  C         2.9778642626       10.0164111362       18.9167497726
  C        -0.4535673694       10.3989021091       28.2227534339
  C        -0.7458944059       11.7690007405       28.9454154656
  S        -0.7710754736       14.3265765780       28.7553139321
  H         6.0030538843       15.5394890218       23.1696595459
  H         4.8211344631       14.8612521178       22.1704491790
  C         6.6447285852       13.8282856735       22.3658692968
  N         2.2549112200        6.8394589268       20.6957749714
  C         2.9956180959        7.2698362332       18.5631638629
  C         3.3714532444        9.4680173378       17.6725344218
  H         3.0915462552       11.1101720432       18.9690201196
  C         0.6997431131        9.6428879630       28.9662311631
  C        -1.7149568818        9.5506903760       28.0357935233
  C        -1.2095486946       12.2592308801       30.2083201745
  C        -1.0656555335       13.6152450453       30.3054514012
  H         7.5767432889       14.3747081811       22.4675231759
  H         6.7128236953       12.9284051752       22.9917056586
  C         6.3622346488       13.5133519800       20.8341026493
  S         2.3596849029        5.3840517889       20.0460605236
  N         2.9567267616        5.8255849068       18.5500843207
  C         3.3433872391        8.0455547128       17.3844571436
  H         3.7612678985       10.1257809047       16.8910978520
  H         1.2030331059        8.9388959296       28.2883317948
  H         0.1556331324        9.0223697315       29.6373155139
  C         1.7067573449       10.4935081347       29.7883837284
  H        -1.4722373860        8.5749186002       27.6168251137
  H        -2.1799804920        9.3670030144       29.0642794319
  C        -2.7410851863       10.3125645572       27.1738384822
  H        -1.4290124673       11.6094322451       31.0056936814
  C        -1.5098285109       14.4098889931       31.4861355515
  H         5.6815644167       14.2113966115       20.3309643189
  H         5.9239294708       12.4868771515       20.8777389879
  C         7.5957477711       13.5329957051       20.0047279615
  C         3.6222667167        7.4425333665       16.1254053686
  H         2.0930828322       11.3373461521       29.1581796273
  H         1.2866609340       10.7544042055       30.7361596434
  C         2.8586759397        9.6507183785       30.2009057160
  H        -2.3481284578       10.7401860148       26.2893236878
  H        -3.1328498042       11.1933111866       27.7483312556
  C        -3.9779029143        9.4518159371       26.7734685328
  C        -1.4097534022       15.8410182250       31.6117938783
  C        -1.7973392552       13.6776240797       32.7549075284
  H         8.3252660918       14.2585699984       20.3550705168
  H         8.1187420240       12.5768344579       20.1481478561
  C         7.3076488378       13.6270973167       18.5119640768
  H         3.4904681099        6.3953329714       16.1043682082
  C         4.0938562511        7.9141358227       14.9257523972
  H         3.2740553061        9.0980683949       29.2731187982
  H         2.3766681421        8.9235268082       30.8343050917
  C         3.9263377275       10.4453026664       30.9689256156
  H        -3.7658614680        8.9950990419       25.8452820555
  H        -4.2591837785        8.6417520024       27.4729862030
  C        -5.1678293628       10.3726164345       26.4211132259
  N        -1.0730506590       16.7391893231       30.5323919967
  C        -1.7894214004       16.5157863652       32.7388244081
  C        -2.0366200391       14.4087851352       33.8862382020
  H        -1.9706108693       12.6067216589       32.8791669106
  H         6.3470156836       13.9856809025       18.3352018626
  H         8.0470154671       14.2261533250       17.8771719041
  H         7.3491568306       12.5910489168       18.1136073843
  S         4.3199398450        9.5854417426       14.4152877247
  C         4.2058404759        6.9503910396       13.7647792970
  H         4.1355735107       11.3139773216       30.3272089581
  H         3.5341415751       10.7457356821       31.9458169718
  C         5.2498601431        9.7256118100       31.2124462396
  H        -4.8357513998       11.2083515353       25.8088353820
  H        -5.3821077417       10.9180500714       27.3006219080
  C        -6.4835517903        9.6215962995       25.9628785200
  S        -1.1095611603       18.2730611717       31.1132470036
  N        -1.7072510978       17.9382561908       32.6015531209
  C        -2.2258293809       15.9067427805       33.9277865126
  H        -2.2499412369       13.8102156824       34.8281047134
  C         4.7339654175        8.9526235238       12.8209521927
  N         4.5792083384        7.6584834386       12.6442836653
  O         4.0154357626        5.7239716575       13.8049602813
  H         5.8127538467       10.3526095240       32.0082272938
  H         5.9492927538        9.7058943743       30.3851919256
  C         5.1548315153        8.3344696185       31.7665026640
  H        -6.0664470249        8.9393094540       25.1992700287
  H        -6.9643526202        8.8321395834       26.5968102657
  C        -7.5127363530       10.5670390632       25.3647610309
  C        -2.2915748161       16.6796567541       35.1158706170
  S         5.1928459884        9.9915627728       11.4155398987
  C         4.6622559475        6.9589377594       11.3861127795
  H         5.9138215135        8.3449935887       32.5465679041
  H         4.1887318372        8.2033960147       32.3011283896
  C         5.4339647578        7.1885774263       30.7167523244
  H        -7.1372632857       11.1495386673       24.5955086101
  H        -7.8132577773       11.2878272732       26.1170058836
  C        -8.7906870399        9.9382954377       24.8492123405
  H        -1.9630403326       17.6913784233       34.9673265860
  C        -2.8646347672       16.4553157084       36.3525442841
  H         5.2937698168        7.4542859244       10.7043036087
  H         5.1151574894        5.9734520782       11.5433269274
  C         3.2377734651        6.6542457367       10.8710795402
  H         5.0047732319        7.4087476683       29.6900970948
  H         4.8325972451        6.3423826692       30.9899944161
  C         6.8450458707        6.8552801957       30.5229974055
  H        -8.9296466278       10.3983464428       23.9302369878
  H        -8.5003073127        8.9103620429       24.6308927371
  C       -10.0156727157       10.0950276436       25.7317161473
  S        -3.5180778871       14.9748005961       36.8362127474
  C        -2.9487506660       17.5656984165       37.3539859352
  H         3.3063026146        5.9919092145        9.9988820280
  H         2.4728023877        6.2842574137       11.5740688773
  H         2.8496479397        7.5996224163       10.4811126450
  H         7.3727475117        7.6379043447       29.9387181552
  H         7.0073959626        5.8689930258       30.0559934209
  H         7.3655106293        6.7451531776       31.3834298232
  H       -10.2141882743       11.1393209610       26.0530382797
  H        -9.9402841704        9.5007285334       26.5915513057
  H       -10.8983598479        9.7166745495       25.1804068653
  C        -3.9983848011       15.7869342282       38.3540218477
  N        -3.6473981858       17.0927476875       38.4187670199
  O        -2.4093549716       18.6570353015       37.1434375161
  S        -4.6251130336       14.9342942157       39.7912643534
  C        -3.7573984133       17.8319213071       39.6608694717
  H        -3.8524420239       18.9476028038       39.5901605990
  H        -4.5878933854       17.4631519074       40.2624729111
  C        -2.4531554133       17.7077547035       40.4371745692
  H        -2.4032516372       18.2338748625       41.3822939702
  H        -2.3133087718       16.7024646482       40.7570139343
  H        -1.5361119479       17.9373156878       39.8491584899
  H         7.6112840236       12.0714784952        3.7641509857
  C         8.0216458609       11.0169846633        3.7917701685
  H         7.1037375848       10.4712656552        4.1149941992
  C         9.2124711926       10.9030815205        4.7756080728
  C         8.4864427386       10.5381706013        2.4012955703
  C         8.7229788474       10.9844415956        6.2204799841
  H         9.8496174455        9.9509292048        4.6308151271
  H         9.8790390992       11.7226435050        4.5767683304
  H         7.7116308841       10.9163481098        1.7179099560
  H         8.5285854114        9.4546961488        2.2027482771
  H         9.5444161231       10.8648053363        2.2422399819
  C         8.2397128894        9.6544183227        6.7291512292
  H         9.5045484814       11.4332628357        6.8492926174
  H         7.9683297347       11.7675826860        6.2194218140
  C         7.2256466377        9.7026757690        7.9326434385
  H         9.0935400907        9.1801547784        7.0988240276
  H         7.9143296132        9.1406231942        5.8540146311
  C         5.9598286864       10.5823201195        7.8863731743
  H         7.7029172003       10.0191086716        8.8804107146
  H         6.9153373886        8.6279338987        8.1231236439
  C         4.7363866841        9.8297922457        7.3124209892
  H         5.7309299856       10.9541221271        8.8813677724
  H         6.1955874407       11.5380836365        7.3064515085
  C         3.4552828932       10.7101149087        7.0224662502
  H         4.5084517140        9.0662648139        8.0861633872
  H         4.9874763050        9.2717828651        6.4856863398
  C         3.7203489941       12.0199506246        6.3786065387
  C         2.9689135339       11.3081717426        8.2671121698
  C         2.3146688990       10.0159986779        6.1993694229
  C         3.3407335138       13.1012395799        7.1717642064
  C         4.2783440870       12.4293456827        5.1698481765
  C         2.8839175658       12.6408486758        8.3453930954
  C         2.5341814090       10.6043551610        9.4136284938
  H         2.8138700735        9.6188706484        5.3442961971
  H         1.8731228752        9.1227271092        6.7479742243
  C         1.1303491712       10.9871189632        5.8559360077
  S         3.5485434250       14.5992793599        6.3753553831
  C         4.2912757887       13.7920351084        5.0290686842
  H         4.5664783709       11.7052922238        4.4085301659
  C         2.4412858575       13.2241039731        9.4682732234
  H         2.5810792395        9.5447022189        9.3869306619
  C         2.1355198992       11.2462992841       10.5609815444
  H         1.5216638243       11.8817500205        5.3457203983
  H         0.6801961762       11.4050843090        6.7292984934
  C         0.0483886661       10.3460717546        5.0774861939
  C         4.7226043226       14.4754137315        3.7325741850
  C         2.0585424825       12.5937835214       10.6012186226
  H         2.3914296552       14.2767706409        9.5367046340
  C         1.6267928025       10.8353591339       11.7990982537
  H        -0.7979121007       11.0497645790        5.0875590242
  H        -0.3479841995        9.4689954699        5.5302474408
  C         0.4271188229       10.0313820548        3.6574188699
  C         4.6610979380       15.8266035120        3.4634082655
  C         4.9322491235       13.6178483281        2.5551832867
  C         1.5859214640       13.3029913282       11.8320245737
  C         1.3471634272       11.9862345694       12.5271015114
  S         1.2086567974        9.3089089397       12.4809339674
  H         0.8931954863        9.0548976361        3.6727818575
  H         1.2689124477       10.6858995552        3.3871167327
  C        -0.7537521349       10.1290215415        2.6977653808
  N         4.4865010663       16.8412061738        4.4388986708
  C         4.9063369371       16.3480168555        2.1413002101
  C         5.2684001281       14.0882825136        1.3083338690
  H         5.0940600175       12.5363672877        2.5980226528
  C         0.3139646397       14.2155679461       11.5313349373
  C         2.7584457315       14.0853109998       12.4742875575
  C         0.8193340006       11.5885604584       13.7560589308
  C         0.6969811383       10.2224317318       13.8668811357
  H        -1.5532198210        9.5899395421        3.0329799629
  H        -0.9607695752       11.1634472618        2.5608222473
  C        -0.5007336950        9.6160878185        1.2383814393
  S         4.4587074803       18.2439204483        3.6417378853
  N         4.7500173751       17.7193645080        2.0906414965
  C         5.2050774620       15.5294333172        1.0148775594
  H         5.5302363157       13.4418529126        0.5068131088
  H         0.4687890382       15.0593539252       10.9149752412
  H         0.0384891981       14.7076090575       12.4624084578
  C        -0.8935452612       13.3565903576       10.9240284784
  H         2.9813264450       14.8755076690       11.6654749790
  H         2.3513534562       14.6033746986       13.3324020750
  C         3.9653492184       13.3043372661       12.9844193324
  H         0.5449303536       12.3363518904       14.4775181441
  C         0.2080110527        9.4701948644       15.0499738581
  H        -1.1432263262        8.7435338993        1.0921147122
  H         0.5838937936        9.3090219095        1.2733193659
  C        -0.7555903041       10.6800591333        0.1795693913
  C         5.3594737773       16.1063743544       -0.2693298234
  H        -0.5571906783       13.0154912496        9.9528501313
  H        -1.2062759775       12.4805075970       11.5427417013
  C        -2.1125629161       14.3634632869       10.7322624747
  H         4.4474423462       12.7439469825       12.2264866137
  H         3.6865033147       12.6194676698       13.7834895822
  C         4.9927895353       14.2297962885       13.5068892479
  C         0.2049120611        8.0597703927       15.2245171056
  C         0.0679313049       10.2751390336       16.2754596533
  H        -1.8533288885       10.9222071235        0.2038643335
  H        -0.2213100118       11.5659265126        0.3088965795
  C        -0.4642809258       10.1777786023       -1.1814511317
  H         4.9895799751       17.1400459304       -0.2465221884
  C         5.7154385096       15.6621886159       -1.4883628469
  H        -1.8516292629       14.8087312825        9.7751814210
  H        -2.2202700185       15.0814233676       11.4693950632
  C        -3.4265962996       13.5850540846       10.6318773325
  H         5.5160871400       14.5726770921       12.6580337010
  H         4.6828888282       15.2066594483       13.9276119891
  C         5.9590436692       13.5262561231       14.4737492291
  N         0.4807003457        7.0853528938       14.2194246165
  C        -0.0089122588        7.3960910230       16.4157778578
  C        -0.1355315478        9.6368776185       17.5016296287
  H         0.2467205626       11.2818592558       16.2165377702
  H        -0.7986407593       10.9056552490       -1.8805333311
  H        -1.0558824704        9.2471537730       -1.1926008731
  H         0.5617341851        9.9812249953       -1.3518725442
  S         6.0681631693       14.0785609703       -1.8711251194
  C         5.7840869807       16.6193271251       -2.5863011098
  H        -3.1359124317       12.6972538478       10.0701749588
  H        -3.6674706215       13.2436102974       11.5990359013
  C        -4.6078809793       14.3044506951        9.9355610950
  H         6.1407440497       12.5603269284       13.9584035952
  H         5.5466027385       13.1871889423       15.4371404867
  C         7.1948926108       14.4500829070       14.7092462891
  S         0.6142376921        5.5738546667       14.9206956172
  N        -0.0004432420        6.0087679349       16.3379798679
  C        -0.2196392981        8.1247589354       17.6358372787
  H        -0.3295649080       10.2798141893       18.3540094610
  C         6.3650980674       14.7045785007       -3.5272578751
  N         6.1909643080       16.0428449385       -3.6968140314
  O         5.6664155755       17.7817152986       -2.3453917773
  H        -5.0513609963       14.9145172293       10.7524349764
  H        -4.2493382004       14.9127323851        9.1177694664
  C        -5.5150249385       13.3025774554        9.2158855343
  H         7.7678707066       13.8257374779       15.3432066345
  H         7.6212726558       14.5912641409       13.7918160629
  C         6.8843596765       15.7870606969       15.3849679390
  C        -0.5785160179        7.3800259757       18.8062453957
  S         6.8597548406       13.6213567299       -4.9137040301
  C         6.3321313961       16.7844930836       -4.9671408676
  H        -4.9565385798       12.9431165735        8.3493573671
  H        -5.8065940029       12.5300126351        9.9348484764
  C        -6.9710471427       13.8515692999        8.9591530242
  H         6.3199785568       15.6738980207       16.3023537165
  H         6.2282747276       16.4588926987       14.8673239568
  C         8.1142443678       16.6081017078       15.6422914639
  H        -0.3783214391        6.3359824421       18.8610487942
  C        -1.1288656079        7.8011142895       20.0231489173
  H         6.9033022056       16.1880488262       -5.7492048922
  H         6.9587948779       17.6381379549       -4.9067886972
  C         4.9672692706       17.2319831821       -5.5032632977
  H        -7.4106321866       13.4022711924        8.0806465103
  H        -6.8078236335       14.9892972483        8.7551222400
  C        -7.9274395630       13.5403763012       10.0248615957
  H         7.6900826944       17.5221994309       16.0221057740
  H         8.8415006992       16.3034237552       16.3392779596
  C         8.8117923329       17.0011048649       14.4274775435
  S        -1.4426783161        9.4715443090       20.5088406598
  C        -1.3073999326        6.7483374938       21.0723214082
  H         4.3551822401       16.3369236835       -5.5887237231
  H         4.9620879180       17.5741822434       -6.4493517498
  H         4.3549408493       17.9039999097       -4.9185734443
  H        -7.3561082978       13.4241956404       10.9335764385
  H        -8.6656294484       14.3349031324       10.2635872080
  H        -8.3665988893       12.6090658122        9.7181622975
  H         9.5769275912       16.2250256931       14.2565414468
  H         8.2541491708       17.1204629381       13.5027054349
  H         9.2857694473       17.9576575845       14.5761754285
  C        -1.8368420898        8.7448112176       22.0787052553
  N        -1.8763162845        7.3774622348       22.1292782916
  O        -1.1167847106        5.5493173508       20.9190527956
  S        -2.5274507866        9.6164470754       23.5123204919
  C        -2.0703857393        6.5439689560       23.4302415986
  H        -2.4063492152        5.5743553780       23.0198700535
  H        -2.8347752252        6.8644283433       24.1621033510
  C        -0.6704240196        6.3675133855       24.1765951022
  H        -0.1389104907        5.7409255266       23.4660116350
  H        -0.8128930278        5.8520121325       25.1143917868
  H        -0.2771015319        7.3348657158       24.3947220628
