352
i =
  H        -3.4521577338       14.2484385062       15.9108937948
  C        -2.9986433001       13.2287714912       16.0838714337
  H        -3.8873019994       12.6411631397       16.3438070151
  C        -2.0488756399       13.3923932689       17.3075700456
  C        -2.3011962374       12.7861401453       14.8178952563
  C        -2.7861065329       13.7437786962       18.5989606436
  H        -1.5104597929       12.4543730813       17.4307988748
  H        -1.2997979520       14.0661676850       17.0707751775
  H        -1.4360394786       13.3563595557       14.6630380344
  H        -2.0452024712       11.7357028427       14.8191045175
  H        -2.9248114553       12.9647994738       13.8795254784
  C        -1.7686747276       13.6491246245       19.7976417906
  H        -3.5836343989       12.9670667093       18.8563686455
  H        -3.3182122210       14.6883453317       18.4769521034
  C        -2.4044724875       13.5971524760       21.1601596419
  H        -1.0508264505       12.7882944496       19.5798246355
  H        -1.1006950383       14.4405754004       19.7316186706
  C        -1.4090976340       13.1121937514       22.1604899741
  H        -3.2619933324       12.9612056271       21.2008616231
  H        -2.6379201105       14.5938161034       21.4319101202
  C        -0.1495496281       13.9804724852       22.4524925934
  H        -1.9056814709       13.0200230688       23.1618750160
  H        -1.0375562554       12.1820789092       21.8587450152
  C         1.0280591810       13.3204027122       23.2495989401
  H         0.3220275734       14.1930996332       21.5254608957
  H        -0.3797921865       14.9081958133       22.9625426979
  C         1.5694174718       12.0376919473       22.5431680803
  C         0.5752840538       12.5208688448       24.4787458918
  C         2.1602950862       14.3285570521       23.5422691037
  C         1.4875743178       10.8993231575       23.3775236448
  C         2.1869400909       11.6952677986       21.3226227367
  C         0.8160844839       11.2113950133       24.6028233686
  C         0.0696076181       13.0736486901       25.6633044580
  H         2.2655419222       14.9625127223       22.6688884204
  H         1.8610708031       15.0990898746       24.2864962287
  C         3.5119614944       13.8198365808       23.9928133192
  S         2.0234794084        9.3966491959       22.6761286515
  C         2.2465021741       10.3348571519       21.2015834270
  H         2.4422376828       12.4743215132       20.5861552109
  C         0.4377642399       10.4928277075       25.6375182329
  H         0.0038645599       14.1456956446       25.7286084001
  C        -0.1959520389       12.3505316522       26.8401673796
  H         3.8539556473       12.9949029099       23.3827499094
  H         3.6480199649       13.3736687346       24.9423727285
  C         4.5320637566       14.8943508175       23.8483852128
  C         2.5942784762        9.6468596002       19.9472367053
  C        -0.1072386355       11.0153731484       26.8448116650
  H         0.8012518910        9.3937795587       25.6676748238
  C        -0.6283059693       12.6754519738       28.1182201586
  H         5.2883407851       14.8725026753       24.7266304309
  H         3.9618962445       15.7781097924       24.0426569931
  C         5.2033371843       14.9552479352       22.4628527558
  C         2.4810101984        8.2331498489       19.7419465222
  C         3.1840421655       10.3848238289       18.7824778897
  C        -0.5054927144       10.2729528522       28.0878725455
  C        -0.7521203703       11.5598199232       28.8744113569
  S        -1.0566102968       14.1466540634       28.8691854219
  H         5.7073900771       15.9193097621       22.4629840633
  H         4.3962740087       14.9334883631       21.6922778616
  C         6.2752556620       13.8638448612       22.2434315894
  N         2.0380599209        7.2745437212       20.6826187451
  C         2.7882866465        7.6740029665       18.5440431161
  C         3.4352200416        9.8030370199       17.4964981771
  H         3.6363630292       11.3756705026       18.9285574866
  C         0.7957579579        9.5544593619       28.7289862596
  C        -1.8210283433        9.4154849401       27.9323745638
  C        -1.0657808081       11.9479558392       30.2392576744
  C        -1.1752793032       13.2940959743       30.3755830562
  H         7.1928727529       14.3695025973       22.1333708442
  H         6.3929690636       13.1810308113       23.1065078109
  C         6.0775153527       13.0951591153       20.8908084078
  S         1.8754402164        5.8253029827       19.9469852437
  N         2.4268753786        6.3212045904       18.4897774581
  C         3.2879113399        8.2964094408       17.3578121324
  H         3.7223610048       10.4066588907       16.6616002305
  H         1.2785587965        8.9429326699       27.9883111705
  H         0.4056035452        8.7341666907       29.3536515274
  C         1.8378341376       10.3574601054       29.4520154667
  H        -1.5163566346        8.6283083101       27.1577702959
  H        -2.0265359496        8.8868823370       28.8978922662
  C        -3.0212536696       10.3322280596       27.4699869019
  H        -1.2704531563       11.2344139076       30.9979076089
  C        -1.5163742333       14.1198782560       31.6430740171
  H         5.1161910757       12.6176513380       20.8925663751
  H         6.8074765330       12.2304695907       20.7934826349
  C         6.3474217903       14.0416638492       19.7058030170
  C         3.5198540574        7.5686934511       16.1665702162
  H         2.1722224081       11.0927402604       28.7077227931
  H         1.5259910019       10.9603922102       30.4084424693
  C         3.0637964921        9.5768839834       29.8359833476
  H        -2.8155162033       11.0753737226       26.7144387014
  H        -3.3598486112       10.8501551315       28.3805932518
  C        -4.1941934784        9.4808888973       26.9633713958
  C        -1.6964741849       15.4983852793       31.7138292734
  C        -1.6709000328       13.3400950472       32.8634110999
  H         5.6090489416       13.8302897930       18.9406361274
  H         6.2513328127       15.1382539134       20.0410405111
  C         7.8068774093       13.9246251627       19.2685123303
  H         3.4932879056        6.4951987545       16.2417973067
  C         3.7745198036        7.9351403002       14.8713945374
  H         3.3053489773        8.7509694045       29.1221043915
  H         2.7790440091        9.1204955211       30.7807722482
  C         4.2340825005       10.5475951030       30.1202635464
  H        -3.9727358265        9.2070645236       25.9222932050
  H        -4.3219310735        8.6169781694       27.6539529849
  C        -5.4848208710       10.2878774500       26.9624712289
  N        -1.4571418691       16.4190482443       30.7302745483
  C        -2.0490946604       16.1214454714       32.8954294011
  C        -2.0761590872       13.9452306267       34.0542996886
  H        -1.6688118909       12.2072556984       32.8069426344
  H         8.3725416031       14.0701191110       20.1880673102
  H         8.1355299864       12.9856768228       18.8218242370
  H         8.2781820842       14.7046324284       18.6370222129
  S         3.9183832099        9.5647953007       14.3747488629
  C         3.9213003667        6.8624715085       13.8885672069
  H         4.0329475188       11.5049522346       29.5935720059
  H         4.1738691267       10.6528846253       31.1680614250
  C         5.6137597736       10.0043302278       29.7165123806
  H        -5.2686798819       11.3448004002       26.7447109700
  H        -5.8511696979       10.1716828484       27.9979558041
  C        -6.5078429347        9.8144943043       25.9030925742
  S        -1.5531875004       17.9223257187       31.3448188514
  N        -2.0279933552       17.5529627553       32.7851450029
  C        -2.3707007345       15.4323392850       34.0954884335
  H        -2.3010712987       13.3056421754       34.8756630591
  C         4.2148626238        8.8166342849       12.8294512772
  N         4.2618654020        7.4847763050       12.7575796547
  O         3.6232017129        5.7098639719       14.0702782080
  H         6.3031132225       10.8206595404       29.6032561652
  H         5.5807741007        9.5188985640       28.7328040204
  C         6.1347131469        8.9986898295       30.7650186291
  H        -5.9191805615        9.2932044815       25.1228099417
  H        -7.1478139904        8.9537397891       26.2515718900
  C        -7.1469449588       10.8799698131       25.0214389359
  C        -2.7687438090       16.1163202623       35.2892567057
  S         4.7035847471        9.5760875682       11.3224179727
  C         4.3057074255        6.7393076795       11.4872095301
  H         7.1857384027        8.9335520863       30.8212699827
  H         5.7812740076        9.2034899326       31.7293312634
  C         5.6261665463        7.5447399994       30.3515803469
  H        -6.4833975050       10.9479967096       24.2057659263
  H        -7.2924027351       11.8235787983       25.4780149693
  C        -8.5291785643       10.3945436690       24.4880335150
  H        -2.5892536478       17.1443002778       35.3436970264
  C        -3.3172364750       15.6307600488       36.4511360088
  H         5.0378146008        6.9587298454       10.7422482976
  H         4.6450384006        5.7587459652       11.7724954790
  C         2.9295952701        6.5215231603       10.8398242002
  H         5.3545816420        7.3808200472       29.3066394563
  H         4.7349232869        7.4374948552       30.9862131599
  C         6.5926219465        6.4836543471       30.9249844048
  H        -8.7626546093       11.0003191724       23.5996913312
  H        -8.5135375070        9.3514280394       24.0138173874
  C        -9.6314837811       10.3054337774       25.5902548532
  S        -3.9408503018       14.1199407107       36.7890910950
  C        -3.3120601626       16.5921546295       37.6139957460
  H         2.5546946414        7.4679546610       10.3360974064
  H         2.9191080706        5.5862983229       10.2323312864
  H         2.1308220322        6.4006484194       11.6247606087
  H         7.5237964986        6.4343985218       30.3812218599
  H         6.1627728161        5.4280235702       30.8543160300
  H         6.7702959417        6.6243932782       31.9800228472
  H       -10.5486876855        9.9172818721       25.2190295470
  H        -9.7164217114       11.2247717887       26.1729787483
  H        -9.3742218152        9.6334601898       26.4031502252
  C        -4.1903390138       14.7609925548       38.4672210899
  N        -3.9087152394       16.0277558375       38.6750438980
  O        -3.0783646107       17.7986076655       37.5054555401
  S        -4.8474947593       13.7748601128       39.8315852187
  C        -4.2390081855       16.7239076955       39.8697976339
  H        -4.4170570466       17.7859063532       39.6855899037
  H        -5.2303251338       16.3614844250       40.1585577706
  C        -3.0906147306       16.5936570847       40.8467555669
  H        -2.4355217484       15.7690986818       40.6457881077
  H        -2.3211304624       17.3862822198       40.6664953275
  H        -3.4851942724       16.5852664817       41.8540361074
  H         7.3247703196       11.3732992924        3.6535196242
  C         8.0510564323       10.4955482133        3.5911281569
  H         7.4794871255        9.6002364885        3.5857173225
  C         8.9027195784       10.4647729536        4.8838488528
  C         8.8440071198       10.5534305248        2.2737819389
  C         8.0798601921       10.5644631578        6.1107460828
  H         9.4284521105        9.5059874099        4.8625328954
  H         9.7244790111       11.1114436724        4.8576346177
  H         9.8531292984       10.8673831976        2.5318096644
  H         8.4692215130       11.2617199715        1.5021281289
  H         8.8923732843        9.4852189733        1.8696883946
  C         7.5066037052        9.2850952349        6.6654079470
  H         8.7177940542       11.0372116840        6.8282719483
  H         7.2235260126       11.2410570209        5.9407454463
  C         6.7338632618        9.4997262659        7.9400777512
  H         8.3232038475        8.5894109289        6.8749773335
  H         6.9501435226        8.6758441636        5.9921537605
  C         5.4775306002       10.3560332064        7.6888397129
  H         7.3467660390        9.9747950423        8.7248756885
  H         6.4711738424        8.5013042888        8.3097544432
  C         4.3801215497        9.7340906004        6.8894991658
  H         5.1199626283       10.7538339376        8.6667470866
  H         5.7985024356       11.2252934076        7.1709343217
  C         3.1804015239       10.6493118376        6.8097432026
  H         4.0239952258        8.8319389572        7.3353845434
  H         4.6424543887        9.5119871994        5.8674464741
  C         3.5733081100       12.0069335528        6.1663659835
  C         2.7989539504       11.3334157481        8.0893759223
  C         1.9886260767        9.9828974590        6.2252193850
  C         3.4062811094       13.0993751822        7.0302451624
  C         4.1378646575       12.4520308666        4.9523577281
  C         2.8939296185       12.7028603789        8.2472214997
  C         2.3292493476       10.7114330615        9.2472769220
  H         2.2908567992        9.5139690424        5.2707537795
  H         1.6514279020        9.1663067137        6.9390787487
  C         0.6868248500       10.8346173103        6.1027658241
  S         3.8035686604       14.6109674102        6.3102020653
  C         4.3204781311       13.7497799379        4.9044021372
  H         4.3359308369       11.7321263831        4.1552444601
  C         2.5701158256       13.2911113352        9.4409780406
  H         2.3303715814        9.6475821585        9.2403814739
  C         1.9053973524       11.3138260575       10.4137292305
  H         0.7838301039       11.8492569792        5.8104111487
  H         0.2832038693       11.0374260487        7.1300744954
  C        -0.4388928737       10.2519703148        5.3376095907
  C         4.9464594451       14.5120901859        3.7355805739
  C         1.9356109817       12.6322791279       10.4978524800
  H         2.8572587073       14.2983515030        9.6069892682
  C         1.4380211351       10.9560466768       11.6414884738
  H        -1.3429999359       10.8279822026        5.3282239677
  H        -0.6738467936        9.3854251710        5.8465015038
  C        -0.1013808973       10.0080232156        3.8104815237
  C         4.7756985076       15.9004825398        3.4185535177
  C         5.3487416181       13.7023901374        2.5690856542
  C         1.4362974895       13.2972046682       11.7267422388
  C         1.1880399376       12.0356844515       12.4620036050
  S         1.0738342161        9.4615938384       12.3985493311
  H         0.6141447313        9.1842896903        3.7959423354
  H         0.4244595648       10.9154707369        3.4742247745
  C        -1.2651432546        9.6977581919        2.9320028899
  N         4.3251877952       16.9008847754        4.2771908269
  C         4.9925608226       16.4801087232        2.1449649632
  C         5.4562270067       14.2145184494        1.2723226512
  H         5.6242853196       12.6824443021        2.7133721079
  C         0.1517510337       14.0943657411       11.4109251353
  C         2.4265799535       14.1169454765       12.5562195730
  C         0.9785118293       11.6754734872       13.8135347534
  C         0.8330517219       10.2809720672       13.8811867099
  H        -1.7986474060        8.8591772108        3.3348258461
  H        -1.9231484557       10.5505372353        2.9075546299
  C        -0.8806013980        9.1871479661        1.5262053545
  S         4.3028949517       18.3421498517        3.5325051882
  N         4.7960582388       17.8491650891        2.0755667191
  C         5.3026217689       15.7026436105        0.9962781873
  H         5.8799577401       13.5693240737        0.4727595907
  H         0.4789786174       14.8471468196       10.6833916388
  H        -0.2255426580       14.6472588719       12.2691711507
  C        -0.9619371308       13.2315851865       10.8126670405
  H         2.4616702758       15.2315697829       12.3085951550
  H         2.1569819445       14.2371216897       13.5605985646
  C         3.7829566298       13.4906471370       12.4837884330
  H         0.9525140303       12.4501820671       14.6245759368
  C         0.3724435510        9.4828808195       15.1157381385
  H        -1.7972685815        8.6456664549        1.1411799293
  H         0.1617817060        8.7317544026        1.5824371301
  C        -0.8284026136       10.3565872223        0.6368341552
  C         5.4613885306       16.3933145767       -0.2383643558
  H        -0.8210964529       12.7537030878        9.8324036874
  H        -1.2335782097       12.3624111349       11.3813336545
  C        -2.1814980277       14.1066453910       10.5823752816
  H         4.2858304990       13.6865159304       11.5377762056
  H         3.7185388384       12.4211263115       12.6700839748
  C         4.7140517075       13.9335891251       13.6046603668
  C         0.2627917153        8.0764492278       15.2922466807
  C         0.2438430005       10.2334180504       16.4160989785
  H        -1.8723600952       10.6755315658        0.5498546545
  H        -0.3668765888       11.1243587216        1.1656428220
  C        -0.4353399388       10.0364397833       -0.7502439528
  H         5.6904262884       17.3997695922       -0.1940631711
  C         5.5913009839       15.9810299311       -1.4947808711
  H        -1.9898757365       14.7096858550        9.7010033716
  H        -2.3353644585       14.6957379554       11.4054045675
  C        -3.4404397329       13.2217264292       10.4567485733
  H         4.4509120117       14.9674161967       13.9450511286
  H         4.5611581944       13.4370800036       14.5381257400
  C         6.1630028149       13.7194479705       13.3661301248
  N         0.5790196884        7.1236296858       14.3141581310
  C        -0.0989533782        7.4940373225       16.4825659581
  C        -0.1732038072        9.6505680027       17.6133507480
  H         0.5019457141       11.2804916818       16.3674628217
  H        -1.1872397308        9.5103199873       -1.2847431956
  H         0.5906778882        9.6283931384       -0.8609593434
  H        -0.4292401869       11.0514332197       -1.2670377251
  S         5.8406192603       14.4060506627       -2.0473633351
  C         5.6038242215       16.9967614125       -2.5785037440
  H        -3.2085383676       12.3437154909        9.9109872055
  H        -3.8468581667       12.8459243749       11.3706151666
  C        -4.4756209779       13.9999573078        9.7170780107
  H         6.2044860577       12.9182300033       12.6004746415
  H         6.6041354806       13.2754891226       14.3114205815
  C         6.9248054759       15.0031149158       13.0306238942
  S         0.3071813551        5.6734322630       14.9051318200
  N        -0.1426398921        6.1107387293       16.4410296230
  C        -0.4281742795        8.2362094833       17.7121309694
  H        -0.2191270683       10.1962496298       18.5537359617
  C         6.1156254679       15.0786116367       -3.6512516398
  N         5.8840957935       16.4222837850       -3.7511461692
  O         5.3509933722       18.1711605874       -2.4333239563
  H        -4.8738458993       14.7830171093       10.3339451456
  H        -4.0608250619       14.3919144196        8.7186531868
  C        -5.5853926463       13.0756601683        9.3225352151
  H         7.9801235585       14.6484480299       12.9140023429
  H         6.5917150899       15.3817843419       12.0502382194
  C         7.0523044606       16.1470793944       14.1096049831
  C        -0.7884753771        7.5217395727       18.9052906959
  S         6.4655519145       14.2198149561       -5.1636550546
  C         6.0197322515       17.1798877810       -4.9869897696
  H        -5.2211936775       12.3835208715        8.6229647589
  H        -5.9829106013       12.5326808552       10.1366912278
  C        -6.7020608269       13.7215495743        8.4712709544
  H         7.3662771433       15.6873814489       15.0760999990
  H         6.1120549574       16.6852901886       14.2837166749
  C         8.0397825173       17.2789818441       13.5833419306
  H        -0.6462128102        6.4128030746       18.8670178263
  C        -1.2738999797        7.9218156461       20.1157537593
  H         6.7214553685       16.6402054170       -5.6268991930
  H         6.4609460262       18.1639244956       -4.8272354831
  C         4.6790376054       17.4348383405       -5.6769718159
  H        -7.0625507310       12.9847846663        7.7156260717
  H        -6.2762273426       14.5733466090        7.8576661041
  C        -7.8650430138       14.1622219039        9.3891853882
  H         8.5970805877       16.7788541577       12.8146086172
  H         7.4691198316       18.0452575955       13.1127815187
  C         8.9172206429       17.9514768196       14.6225654382
  S        -1.4717690369        9.5726127131       20.5786823291
  C        -1.5066230732        7.0096703281       21.2524430017
  H         3.9049656950       17.7967045541       -5.0115760845
  H         4.3092244922       16.6221589716       -6.1963833433
  H         4.8216954177       18.1827298998       -6.4611970066
  H        -7.3935873946       14.6898300775       10.1578541804
  H        -8.6595049813       14.6189179122        8.7977561276
  H        -8.3157794359       13.3357755087        9.8208604469
  H         9.7089552609       17.3858216149       15.1822556695
  H         9.2689904406       18.8439925182       14.1007892925
  H         8.2724765460       18.1913118133       15.4237350018
  C        -1.8966646772        8.9832002103       22.1669557474
  N        -1.9397162851        7.6694345381       22.3330256046
  O        -1.4644010322        5.7654964986       21.2814891709
  S        -2.4310051696        9.9670577883       23.4318137753
  C        -2.2303516902        6.9591820889       23.5713235943
  H        -2.7380229903        6.0480065602       23.4132351978
  H        -2.8316707461        7.4740084432       24.2941371530
  C        -0.8883799193        6.6431706904       24.1562512569
  H        -1.1006811400        6.3562099184       25.2104946484
  H        -0.2255966480        7.4815443299       24.1982937283
  H        -0.5124179921        5.7876726489       23.6298163215
