352
i =
  H        -3.3754414819       15.2199800252       16.2438855443
  C        -3.3799858694       14.1257842645       16.1524673828
  H        -4.4076095972       13.7735743210       16.2856216409
  C        -2.3497528752       13.4284635487       17.0746510280
  C        -3.0909799158       13.9051554191       14.6483623556
  C        -2.6441247609       13.7839667418       18.5777306061
  H        -2.4682984759       12.3622996062       16.9725455623
  H        -1.2957011197       13.6670835535       17.0176113263
  H        -3.9259080523       14.1857787693       13.9295736855
  H        -2.2668202321       14.4647244525       14.2961322141
  H        -2.7854437190       12.9017537672       14.4352723717
  C        -1.5481199879       13.5172964230       19.6090716558
  H        -3.5773251855       13.3021308922       18.7890447392
  H        -2.9215434645       14.8280337999       18.7862392971
  C        -2.1595258719       13.4173796200       21.0520612385
  H        -1.1178622724       12.5723912329       19.4273162411
  H        -0.7593152778       14.2098951061       19.4329440563
  C        -1.0521683552       12.9062034033       21.9966569340
  H        -3.0181401276       12.7220163279       21.0575604871
  H        -2.4593947038       14.3595673236       21.3429926334
  C         0.0982578046       13.9932678884       22.2634244780
  H        -1.4315440485       12.6068656644       23.0107139925
  H        -0.6883931396       11.9313126593       21.5278994581
  C         1.2533086176       13.3259445948       23.0278890715
  H         0.5433615913       14.2264921308       21.2914847060
  H        -0.3241296223       14.8895730326       22.7649106724
  C         1.5618905320       11.9861638689       22.3423642678
  C         0.8550519447       12.6586579224       24.3237738168
  C         2.4289186182       14.2585383806       23.1808940178
  C         1.3300114558       10.9023896024       23.1464436720
  C         2.0741605033       11.5351196783       21.0963345523
  C         0.8239073599       11.3038087841       24.3718182720
  C         0.4819757648       13.3052722078       25.5333965012
  H         2.5698000773       14.7291739268       22.2593090756
  H         2.1559616317       15.0608011465       23.8829565537
  C         3.7358022434       13.6095629789       23.6519217209
  S         1.7629393941        9.3993700319       22.4968519181
  C         2.1349494928       10.1846994523       21.0367297268
  H         2.3215842647       12.2073944186       20.3058979903
  C         0.4505640454       10.6445319495       25.5391922403
  H         0.4387802305       14.3862680717       25.4248666094
  C         0.0576844961       12.7421194212       26.6389113982
  H         4.0414219159       12.7931288432       22.9815098015
  H         3.5907678983       13.0955957007       24.5255679826
  C         4.9669686711       14.5731996187       23.7932623470
  C         2.5587634558        9.4079466513       19.7886871949
  C         0.0298329722       11.3809669353       26.7362632275
  H         0.4630713995        9.5480679206       25.7263395099
  C        -0.3380825029       13.2507313207       27.8753343181
  H         5.6957792714       14.0428072179       24.3558520538
  H         4.5877266462       15.4771719146       24.2618983029
  C         5.4708903110       15.1307354983       22.4636278707
  C         2.3059236576        8.0216179495       19.5748065886
  C         3.0336980269       10.1998791832       18.6577877409
  C        -0.4563908554       10.7504939868       27.9819418838
  C        -0.6965449936       12.1689540463       28.6554003670
  S        -0.5072063179       14.7834144868       28.6724995535
  H         6.1371123920       15.9605337822       22.6379909773
  H         4.6684793420       15.4880943389       21.7304962821
  C         6.2743612453       14.0357395025       21.7442526218
  N         1.9654810547        7.0584555758       20.5597504867
  C         2.4070513330        7.4340341998       18.3329357417
  C         3.1627404881        9.6068669730       17.4269705289
  H         3.1889257562       11.2328010939       18.7849675614
  C         0.5587303675        9.9138557849       28.7465083855
  C        -1.6607333727        9.8686676357       27.8161691657
  C        -0.9443348127       12.5835330209       29.9935607945
  C        -0.8669150781       13.8730843717       30.1192359986
  H         6.9930604914       14.6053649705       21.1637403205
  H         6.9084385468       13.4380593978       22.3740403292
  C         5.5524059589       13.1578906437       20.7138297228
  S         2.0388656904        5.5684100212       19.9512469678
  N         2.2124797184        6.0674612691       18.3519028085
  C         2.8729482121        8.1451626783       17.2112593788
  H         3.4555892772       10.2368774433       16.6143187196
  H         0.7099049907        9.0727316122       28.0522702988
  H         0.1594284432        9.4928985148       29.6492034800
  C         1.9860293074       10.6133433458       28.8441272808
  H        -1.4879612865        9.0424374066       27.1820962566
  H        -1.9501659448        9.3836766948       28.7493002701
  C        -2.8807569146       10.6917736792       27.3768786083
  H        -1.2038197943       11.7740559578       30.7345617033
  C        -1.2147894476       14.5867163232       31.4282215899
  H         4.4753239134       13.2305683507       20.7894594558
  H         5.7311291028       12.1247089263       20.8550097353
  C         5.8334318516       13.3863030809       19.2866158104
  C         3.0844281409        7.4974425653       15.9831119249
  H         2.3505253165       10.9279319046       27.9277889570
  H         2.0783774834       11.5152448270       29.3724925240
  C         3.0596582808        9.7479283626       29.5451430783
  H        -2.6089732823       11.2034464742       26.4637116312
  H        -3.0212878059       11.5437005912       28.0667647324
  C        -4.1216160178        9.7884820679       27.3797296703
  C        -1.2111087524       15.9923110431       31.6299585444
  C        -1.5916292289       13.7934574326       32.6067238065
  H         5.1308236624       12.8754106458       18.6243122257
  H         5.7496705245       14.3906515205       18.9410993496
  C         7.2536871330       12.9137778927       18.9841346661
  H         2.8927080307        6.4103241208       16.0493394575
  C         3.4505810394        7.8387271849       14.6804514592
  H         3.2354201224        8.9571872118       28.8417324272
  H         2.6127277048        9.3132877371       30.4808455600
  C         4.4238843139       10.3754478696       29.8479019832
  H        -4.0215999463        9.0873066889       26.5746634148
  H        -4.0453817626        9.1851070879       28.2421446532
  C        -5.5227780620       10.4168484511       27.1802569443
  N        -1.1048386516       16.8456121702       30.5776891692
  C        -1.5529327714       16.5890273351       32.7790513351
  C        -1.8806542920       14.4111793159       33.8091282577
  H        -1.5050349824       12.7605405739       32.6794172781
  H         7.3916521913       12.3417921123       18.1316352717
  H         7.9190918032       13.7872879033       18.7652329039
  H         7.7465816850       12.3468025596       19.8270979494
  S         3.7255603227        9.4179385989       14.2526823322
  C         3.5106363209        6.7658605143       13.6642468312
  H         4.5975534603       11.1176771955       29.0597434067
  H         4.2368674489       10.8486495000       30.7697888169
  C         5.6197806479        9.3672506220       29.9803127074
  H        -5.4532777769       11.2958990221       27.7327269292
  H        -6.2234583846        9.7693825719       27.6831974902
  C        -5.8166245490       10.7204977015       25.6873427770
  S        -1.2234975693       18.3330454235       31.1516597526
  N        -1.4095381377       17.9486727442       32.7447533790
  C        -2.0011527818       15.8757876383       33.8992487731
  H        -2.0262725234       13.8313826980       34.7008882938
  C         4.0407629416        8.7080425219       12.6637557106
  N         3.9363641664        7.3676374589       12.5063984106
  O         3.5347762182        5.5307518463       13.8151110619
  H         6.4140277306       10.0331115397       30.3796402716
  H         5.9274505447        8.9700575238       28.9630578128
  C         5.3790058863        8.1719341438       30.9495957985
  H        -5.2199816763       11.5735447196       25.3061613872
  H        -5.5042155922        9.8856743749       25.0516436536
  C        -7.2823637131       10.9740091607       25.4002894291
  C        -2.4339911436       16.6314985746       35.0179247376
  S         4.2496871915        9.6953645901       11.2041263356
  C         4.1247263508        6.6270567688       11.2835271462
  H         5.4941249954        8.3387336809       32.0475382191
  H         4.3583153444        7.7406576249       30.8233849435
  C         6.1810870079        6.9751161679       30.4400411233
  H        -7.3139961785       11.4343737935       24.4326366579
  H        -7.6247523474       11.7679656961       26.1095552324
  C        -8.0936163506        9.6929233678       25.4124439952
  H        -2.3041080272       17.6832411724       34.9142447176
  C        -2.9681297894       16.2813733502       36.2542170444
  H         4.9523455520        7.0104176033       10.6902243300
  H         4.3538948504        5.5894502492       11.5993011840
  C         2.8128929173        6.5676615416       10.4542904091
  H         7.1644589546        7.2977697258       30.2406671708
  H         5.7823504264        6.5697871746       29.5135110003
  C         6.1845200968        5.8659980952       31.5473469162
  H        -7.7700471751        9.0650831128       24.6266013524
  H        -7.9905171985        9.0920316074       26.3278333050
  C        -9.5747908291       10.0755356844       25.2551028159
  S        -3.3590162416       14.7441166096       36.8639740001
  C        -3.1563516790       17.4082040390       37.2217870313
  H         2.6240228142        5.6167060780        9.9398505088
  H         1.9549774406        6.8402258173       11.1323457933
  H         2.7963511875        7.3036022919        9.6660020067
  H         6.3561687561        6.1704505494       32.5325612663
  H         7.0365005710        5.2138259375       31.2632643422
  H         5.1876711414        5.2767093328       31.4572036068
  H        -9.6629330531       10.9337264208       24.5473992023
  H       -10.0551138702       10.3198139745       26.2013515201
  H       -10.2515060488        9.2784744532       24.9029524010
  C        -3.8131378552       15.5338202658       38.3862040849
  N        -3.6086315736       16.8647057346       38.4084890999
  O        -2.8052266270       18.5390833685       37.0226592908
  S        -4.1938417688       14.6924141574       39.9011788822
  C        -3.7651113531       17.8094284340       39.5246061057
  H        -4.0696399228       18.7728245704       39.2056719970
  H        -4.4694775352       17.3316643265       40.1518147056
  C        -2.3819497272       17.7820457803       40.2787252555
  H        -1.6995201364       17.2290215970       39.5513990251
  H        -2.0475949498       18.7617027213       40.4797175928
  H        -2.4636191179       17.2882811090       41.3116782648
  H         7.0896621303       11.9038558702        3.4361016507
  C         7.7671982735       11.1368132423        3.5593949372
  H         7.0771594836       10.2547221415        3.5879890923
  C         8.6190050891       11.3875404934        4.8687796607
  C         8.5091428055       10.9230676234        2.2784222108
  C         7.7269679446       11.5132836610        6.1656989170
  H         9.3043739446       10.5424875487        4.9679439905
  H         9.3145612365       12.2407602855        4.7502318479
  H         9.0491810021       11.8311966395        2.1076200884
  H         7.8107656942       10.7305648487        1.4643848767
  H         9.2889378521       10.1644823521        2.4566414075
  C         7.1376583328       10.1649242174        6.4678493091
  H         8.4335847118       11.8366846705        6.9771339522
  H         6.9199403829       12.2967932242        6.0370046813
  C         6.5192238439       10.1101199679        7.8409659679
  H         7.9235112499        9.3490904426        6.4321375858
  H         6.4177856712        9.7730748352        5.8226740352
  C         5.1820378577       10.8136506810        7.9305763594
  H         7.2216458092       10.6653388415        8.4997756920
  H         6.4302628236        9.1233089815        8.2703609213
  C         4.1065369066        9.9714479706        7.3000982980
  H         4.9579474403       10.9698454294        9.0071640213
  H         5.2478433105       11.8721030122        7.6206564300
  C         2.7649096371       10.7751004131        7.0005942929
  H         3.8441803542        9.2060335493        7.9977942492
  H         4.4010587333        9.4644492702        6.3722240297
  C         3.1517130338       12.1466278998        6.3444291942
  C         2.2912313118       11.5344900716        8.2121563942
  C         1.5155251855       10.0226394297        6.2402969571
  C         2.8061138745       13.2306516351        7.1166229044
  C         3.7504808858       12.5530005880        5.1292112723
  C         2.2969353786       12.8792309259        8.3201334977
  C         1.8211118872       10.8837981067        9.3063556632
  H         1.8585349772        9.6033909650        5.2846958023
  H         1.3505553655        9.1401273250        6.9182304219
  C         0.3060009947       10.9826935367        6.1210629322
  S         3.1506204016       14.7269336189        6.4022425716
  C         3.9284824414       13.8990650349        5.0288182984
  H         4.1253891081       11.8015206574        4.4427373704
  C         1.8995057848       13.5038880406        9.4676226687
  H         1.7596932215        9.8086577909        9.1589375794
  C         1.4203537153       11.5016910904       10.4748586119
  H         0.6625122872       11.8323971330        5.6411377996
  H        -0.0415244822       11.2495678223        7.1782820880
  C        -0.7469420109       10.2668065125        5.3085505062
  C         4.3170639452       14.6494527482        3.7752816288
  C         1.4094250701       12.8598111527       10.5815919344
  H         2.0326277323       14.6049703359        9.6422012571
  C         0.9603346778       11.0512709603       11.6840336144
  H        -1.7044000265       10.7310042867        5.4379350964
  H        -0.8208132829        9.2916404374        5.7484281239
  C        -0.3407418775       10.1298514068        3.9135469932
  C         4.1607685463       16.0357829185        3.5357154175
  C         4.7785421233       13.8300867153        2.6451686191
  C         0.9913134216       13.5263255889       11.8868150458
  C         0.6520117065       12.1411441270       12.5472230101
  S         0.5800908606        9.5004918162       12.3468823348
  H         0.4404027517        9.3541638883        3.8258661219
  H         0.1941400279       11.0521912278        3.5594060479
  C        -1.4016639630        9.8909196946        2.8666342099
  N         3.6890125312       16.9063689388        4.5211897384
  C         4.4002915021       16.5779833733        2.2935060890
  C         4.9738910694       14.3508505496        1.3518850246
  H         4.8170711513       12.7498941992        2.7340616022
  C        -0.2506441639       14.3668876163       11.5516326230
  C         2.1277299741       14.2736431153       12.7096696166
  C         0.1241454153       11.7225036372       13.7527018390
  C         0.1702391298       10.3437425090       13.8117822873
  H        -2.1287492463        9.2401720049        3.3123761899
  H        -1.9985551883       10.7940790157        2.6593839593
  C        -0.9037068196        9.1695160710        1.5866335278
  S         3.7565228414       18.4094789163        3.8721169119
  N         4.0343510317       17.9708059737        2.3651178868
  C         4.8173995475       15.8419207899        1.1344316285
  H         5.4656631331       13.6936320977        0.6244695581
  H         0.1235513349       15.1666630091       10.9199941973
  H        -0.7024270266       14.7597520129       12.4474654687
  C        -1.4093484214       13.6772596042       10.7768411927
  H         2.6642536082       14.7900411674       11.9461874604
  H         1.9154655887       15.1458988152       13.3515971304
  C         3.1527626657       13.4564760188       13.4216768673
  H        -0.2681065050       12.4419899190       14.5117903079
  C        -0.1251106599        9.5593254104       15.0652834200
  H        -1.7732967978        8.6820664737        1.1805698578
  H        -0.2341086798        8.3939352845        1.9383635124
  C        -0.0983255655       10.0333489374        0.6192252843
  C         4.9845253161       16.5766771864       -0.0848093122
  H        -1.0604124992       13.3922744913        9.8541510904
  H        -1.8507289080       12.9042796710       11.2710510214
  C        -2.6184767829       14.5858309924       10.5174570899
  H         3.5470031872       12.6981922883       12.7802992863
  H         2.6343289935       13.0040412333       14.2215541138
  C         4.3847671486       14.2864076504       13.8716635697
  C        -0.2071416801        8.1260901409       15.2201754392
  C        -0.1006015658       10.3210615568       16.3868844638
  H         0.1121363948       10.9344017699        1.2036753652
  H         0.8456995819        9.4244664964        0.4600825980
  C        -0.6781155856       10.2565747472       -0.7772899250
  H         4.8785055669       17.6106750838        0.1147345265
  C         5.3047528320       16.1732516618       -1.3381631279
  H        -2.4383005505       15.2250021306        9.6413055686
  H        -2.7957660948       15.1257730987       11.4329373293
  C        -3.8495242085       13.7235453625       10.1822915511
  H         4.8972412169       14.6524346322       13.0129678498
  H         4.0475064598       15.1682818069       14.4453479018
  C         5.2876928460       13.5465641347       14.8466370159
  N         0.0031983869        7.1936864024       14.1391074101
  C        -0.4621267670        7.4744441532       16.4579878229
  C        -0.4503518891        9.6713398746       17.5653456173
  H         0.0525723609       11.3611912239       16.4184702971
  H        -1.7470593576       10.4163500014       -0.6904953526
  H        -0.5613257827        9.3319502541       -1.3172730526
  H        -0.3078923428       11.0509792716       -1.4101652710
  S         5.6566454753       14.5050845669       -1.8585721050
  C         5.4239103095       17.2007542875       -2.4254680373
  H        -3.5401343279       12.7374808627        9.7873962745
  H        -4.2851312275       13.4203452318       11.1147150201
  C        -4.7253799638       14.3358899611        9.1313775720
  H         5.2909832815       12.4792236875       14.5822985128
  H         4.8457771879       13.5845286532       15.8742858293
  C         6.7199466648       14.0540842258       14.9781802504
  S        -0.0426591675        5.6661955232       14.7251252524
  N        -0.3152682534        6.1193893332       16.3035466142
  C        -0.7091616402        8.1585527163       17.6364750573
  H        -0.4667076620       10.3037097642       18.4432454853
  C         5.8973271377       15.2350084504       -3.4931808733
  N         5.7233699542       16.5506669951       -3.5697897437
  O         5.2122089798       18.4334280016       -2.2640000786
  H        -5.2664420998       15.2006465010        9.4636536049
  H        -4.1788438309       14.7347201699        8.3528928917
  C        -5.6725975427       13.2509509918        8.5327909622
  H         6.8353012103       14.0201882469       16.0753959925
  H         7.3342317736       13.3766187092       14.4937136169
  C         6.7826192542       15.5214903317       14.4886484634
  C        -0.9606596483        7.4254653544       18.8655405222
  S         6.3345702175       14.4233499964       -5.0349700814
  C         5.7019936905       17.3118409930       -4.8688087288
  H        -5.2812075494       12.7391670954        7.7381635230
  H        -5.6945805298       12.4864176503        9.2778024159
  C        -6.9467720546       13.9306240166        8.1461975647
  H         5.9412249728       16.0555175025       14.9154456896
  H         6.8566747253       15.6011620911       13.3187884022
  C         8.0409468066       16.2385238086       15.0129155723
  H        -0.6675638156        6.4360545739       18.9029867173
  C        -1.3877381062        7.9188341567       20.1116207559
  H         6.5544196761       16.9886609719       -5.5309461381
  H         6.0265541168       18.2417567616       -4.5976656431
  C         4.2683731360       17.3097155959       -5.4146233309
  H        -7.4071901834       13.3176559027        7.4028436788
  H        -6.7171316107       14.9150140565        7.7666828681
  C        -7.8802935207       14.0399394443        9.3293177935
  H         7.9316032828       16.1300865242       16.1121658713
  H         8.9091064371       15.6910899949       14.6887004396
  C         8.1351998236       17.7397842925       14.8295567785
  S        -1.8561624005        9.5899072561       20.5397705784
  C        -1.4212724100        6.8948316066       21.2333971896
  H         3.6086128977       17.7227703677       -4.7059196064
  H         3.9477234243       16.3013851749       -5.7274790534
  H         4.2110040589       17.8542524414       -6.2947003313
  H        -8.8919743274       13.4796589413        9.2966818370
  H        -7.2886235212       13.8389629365       10.1978736956
  H        -8.1404129953       15.0478040675        9.5933735464
  H         7.0722952930       18.2298552928       14.8398001607
  H         8.6827071394       18.2075996676       15.6669310312
  H         8.6652569724       17.9733193857       13.8777624548
  C        -2.3628033053        8.8230084730       22.0699575983
  N        -1.9855250821        7.5799884366       22.2658112693
  O        -1.1459194074        5.6951289704       21.1331356832
  S        -3.0593278587        9.6971044965       23.4705126926
  C        -2.0986149196        6.8598012164       23.5130417443
  H        -2.2310158949        5.7458267495       23.2810261503
  H        -2.9224977419        7.1842012216       24.1768845398
  C        -0.7873243632        6.9435374151       24.3034429927
  H        -0.1088423046        6.1897504940       23.9699366953
  H        -0.7878198177        6.8033833796       25.4171885780
  H        -0.2086991674        7.8277267386       24.1047750736
