352
i =
  H        -1.5399396293       14.7742553999       16.0475882271
  C        -2.4574855443       14.2913854437       16.4861059897
  H        -3.0700725852       15.2218759370       16.7606784468
  C        -2.1236820063       13.3969402528       17.6836109171
  C        -3.1257068789       13.5290758668       15.2939836223
  C        -2.1744560507       14.2440747583       18.9938039839
  H        -2.7590784042       12.5847138047       17.7363436169
  H        -1.0920486932       12.9610421335       17.6064020928
  H        -2.5009714647       12.8013353937       14.8710328554
  H        -4.0699670895       13.0320477070       15.6099249533
  H        -3.3944518549       14.2097955326       14.4052213252
  C        -1.6424667889       13.4377472492       20.1656201496
  H        -3.2015276715       14.4260816217       19.2160049089
  H        -1.5501341074       15.0836420199       18.7374320672
  C        -2.3340976784       13.6329797434       21.4745590658
  H        -1.8814233727       12.4342926199       19.8516255836
  H        -0.5503632956       13.4474847367       20.2594798235
  C        -1.3890451425       13.0654208815       22.5059971047
  H        -3.3172902022       13.1428306703       21.6058453400
  H        -2.4705141156       14.6956321438       21.6191413925
  C        -0.1436097378       13.9132727784       22.7928004322
  H        -1.9389200831       12.9635865395       23.4405372866
  H        -1.0360931351       12.0257824272       22.2458779743
  C         1.1786585574       13.1384901003       23.2614252732
  H         0.1804719569       14.5564810843       21.9817704541
  H        -0.4792476865       14.5334684837       23.6168427845
  C         1.5140136081       11.7966917691       22.5431953733
  C         0.7879091517       12.4251994160       24.5105348743
  C         2.3386946401       14.1576577973       23.4867099982
  C         1.3118252194       10.7079808462       23.3369149647
  C         1.9016580879       11.3962080859       21.2714259395
  C         0.8570273648       11.0781668666       24.5700444130
  C         0.3806175368       13.0059372218       25.7398153338
  H         2.3996250475       14.7256849220       22.5493809364
  H         2.1250601802       15.0017455125       24.1157890763
  C         3.7208967346       13.5169820059       23.9305690032
  S         1.8733883699        9.2372150308       22.5578935477
  C         2.1044450129       10.1021178037       21.1319623521
  H         2.0491079273       12.1861464025       20.5574609266
  C         0.5713306684       10.4722734351       25.7545114123
  H         0.2067768108       14.1016291957       25.7672736508
  C        -0.0745040171       12.3282150069       26.8443846912
  H         3.9381182548       12.7940908527       23.1793217566
  H         3.6612857407       13.1002921714       24.8970827329
  C         4.8195974062       14.6339149180       24.0312217016
  C         2.4269103745        9.4086183575       19.8847817475
  C         0.0263402954       11.0089604202       26.9102344722
  H         0.5228544745        9.3740636883       25.7723949857
  C        -0.4761991792       12.7741006478       28.0654266516
  H         5.6655242572       14.2937174367       24.6684163265
  H         4.2860256952       15.5036208115       24.4446082543
  C         5.4094002347       14.9957519923       22.6532515729
  C         2.5707493954        7.9853782018       19.7401060930
  C         2.7921100150       10.2133031907       18.7376993536
  C        -0.4292037040       10.3269202173       28.2146072205
  C        -0.6954588219       11.7262975030       28.8710329942
  S        -0.8216562034       14.2962052599       28.7756521024
  H         5.9843726533       15.9080630109       22.7278171136
  H         4.6637953611       15.1501114016       21.8836565120
  C         6.4770869275       14.0839710110       22.1898503023
  N         2.3824252329        7.0563914491       20.6739972538
  C         2.8086223920        7.4368803814       18.4773070797
  C         3.1537613002        9.6300731296       17.5281692987
  H         2.8279613063       11.3474914183       18.8008071924
  C         0.6485543454        9.4248812329       28.9086097114
  C        -1.7436008088        9.5436109934       27.9284590506
  C        -1.1518122611       12.1755240963       30.1304813796
  C        -1.1698582967       13.5643165848       30.2336812127
  H         7.3423343356       14.6653741962       22.0225447962
  H         6.6768852092       13.3604779290       23.0195625086
  C         6.1372594929       13.4298121051       20.8364000329
  S         2.3961557033        5.5666823998       19.9614662874
  N         2.7262468735        6.0645753421       18.4530451819
  C         3.0815149339        8.2059402010       17.2864937553
  H         3.3228957320       10.2813481769       16.6765967755
  H         0.7054706967        8.5349362064       28.2448553649
  H         0.2561551021        9.1186198156       29.8907466838
  C         2.1123653948        9.9403237620       29.0721168148
  H        -1.6157270814        8.7816739167       27.1335675830
  H        -2.1257773944        8.9334906720       28.7618527845
  C        -2.9162295192       10.3535537408       27.3832652502
  H        -1.2993685079       11.4150130504       30.8113857339
  C        -1.5237132144       14.2998105004       31.4959801571
  H         5.4784232110       14.0078222648       20.2376540005
  H         5.6957582514       12.4566953339       20.8921851493
  C         7.3851524788       13.2125596840       19.9645436675
  C         3.1690248901        7.4602347984       16.0409967501
  H         2.7770579715        9.2968820617       28.5197899919
  H         2.1613927405       10.9117045013       28.6210347329
  C         2.5527188646       10.0103181549       30.4798656068
  H        -2.5194231298       10.7516195645       26.4505197125
  H        -3.0397777372       11.1320287577       28.1454906927
  C        -4.2416705481        9.6303781108       27.0817808011
  C        -1.6644143905       15.6928353716       31.5864750676
  C        -1.8495939069       13.5332382486       32.6797841848
  H         8.2692130842       13.8290141240       20.2029481428
  H         7.6287706929       12.1450581202       20.0155491890
  C         7.0261531670       13.4847883880       18.4859595125
  H         2.6240172558        6.5864365866       16.1479065665
  C         3.5927700828        7.8956551849       14.8244899021
  H         2.1971582291        9.1464370598       30.9881706199
  H         2.0010026487       10.8043314730       30.9415854349
  C         4.0768482359       10.3240189783       30.6584095372
  H        -4.1400984994        8.6377001929       26.6634691698
  H        -4.8643760016        9.4505596776       27.9878846514
  C        -5.0984627111       10.4484175565       26.1674041651
  N        -1.3947137346       16.5658453250       30.5060556940
  C        -1.9425496383       16.3349297939       32.7842357800
  C        -2.0406374105       14.1383420936       33.9006481706
  H        -1.6243710141       12.4937158846       32.6941440779
  H         6.1410315001       12.9863048125       18.1656982858
  H         6.8065402150       14.5676771440       18.3942467385
  H         7.9245510318       13.2734132796       17.8373069435
  S         4.0197122710        9.4844645516       14.3587188010
  C         3.5515471057        6.9428212128       13.6500619652
  H         4.4277477483       11.0575313139       29.9297954690
  H         4.2255949013       10.7566632624       31.6277090239
  C         5.0172041904        9.0223204318       30.4416546319
  H        -4.5592339094       10.4461276412       25.2295144169
  H        -5.1124433448       11.4445875870       26.6848823696
  C        -6.4637059188        9.8011399851       25.9185475557
  S        -1.4737571019       18.1032305870       31.0916661037
  N        -1.9059374974       17.7024672156       32.5990204252
  C        -2.1187800875       15.5992883475       33.9601597603
  H        -2.0294402216       13.4227179619       34.6905573285
  C         4.1911308515        8.8858203630       12.7559320292
  N         3.9965832826        7.5371720917       12.5891565485
  O         3.1210057393        5.7967732638       13.7401568010
  H         6.0035085626        9.5917054602       30.4191208944
  H         4.9327160590        8.4931577413       29.4489831450
  C         5.0147422727        8.0148505866       31.6183188985
  H        -6.2977759796        8.8176648817       25.6097326297
  H        -7.0748450246        9.7205804669       26.8601251586
  C        -7.2539774117       10.6043572606       24.9233111182
  C        -2.2264923216       16.2880434354       35.1542063623
  S         4.5241706087        9.8900112158       11.3048504308
  C         3.9325376235        6.8076701406       11.2646032825
  H         5.6244589617        8.4627992226       32.3689552101
  H         3.9963186083        7.9010206785       32.0761268849
  C         5.6203114480        6.6761843994       31.1235509333
  H        -6.7677975526       10.8255245589       23.9496388623
  H        -7.7109798430       11.5685018907       25.2988043350
  C        -8.6169448953        9.9252272286       24.5734867178
  H        -1.9373949171       17.3200407474       35.0561355760
  C        -2.6621042666       15.9177264668       36.3968622766
  H         4.7286984318        7.2890397206       10.6544270143
  H         4.2146596915        5.7589007613       11.3575811522
  C         2.5924421953        6.7844342856       10.6121812625
  H         5.2977235221        6.4203975687       30.1506537597
  H         5.1405013621        5.9761245307       31.7156895140
  C         7.1664285330        6.5231765381       31.2711983651
  H        -8.9363601322       10.5742441336       23.8398792531
  H        -8.4117075185        8.9067673025       24.2253916378
  C        -9.6744580313        9.8909423875       25.7130140308
  S        -3.2570494639       14.3575123853       36.7555708472
  C        -2.7191323595       16.9077702093       37.5030832896
  H         2.8343787340        6.7849940966        9.5684167032
  H         2.0240203543        5.9202904200       10.8428373635
  H         1.9904426511        7.6540282782       10.8681180540
  H         7.4152745278        5.4857124583       30.9332298957
  H         7.2420087092        6.6008236418       32.3431690298
  H         7.7165714931        7.2980677928       30.8005952586
  H       -10.0369308424       10.9240123599       25.8650746077
  H        -9.2595227443        9.5177214365       26.6516216157
  H       -10.5174155872        9.1895647090       25.5150507904
  C        -3.7794114360       15.0249754012       38.3007128757
  N        -3.4017663248       16.3429036731       38.5159445140
  O        -2.2323827251       17.9796905562       37.4510201813
  S        -4.4983036654       14.2208320355       39.5880958131
  C        -3.5668330676       17.0520234279       39.7347061891
  H        -3.3476364489       18.0726820550       39.5541427331
  H        -4.5899684357       16.9501366549       40.0782740967
  C        -2.4963678336       16.6871574012       40.8465081682
  H        -2.8731735771       15.9369429471       41.4994574508
  H        -1.6309883889       16.2216889355       40.3986718754
  H        -2.2106979469       17.4584385086       41.5674315593
  H         7.5527955989       11.0029135126        3.3966541046
  C         8.2923669269       10.2691053449        3.5378166925
  H         7.8675754977        9.2753412216        3.6644977733
  C         8.8519945225       10.4849606293        4.9377511032
  C         9.2413537508       10.2903856929        2.3067185839
  C         7.7477780146       10.8844356428        6.0041946311
  H         9.4123745605        9.6104828405        5.3542845440
  H         9.5318472465       11.2889954578        4.8507982564
  H         8.6822531504       10.3185112001        1.3524222804
  H         9.8501118588        9.3572666026        2.3462829712
  H         9.9298881343       11.1305350465        2.4511304899
  C         7.3018972657        9.6399980511        6.7229114085
  H         8.1598602157       11.6168026733        6.7106855141
  H         6.9999892184       11.4471213962        5.5097823134
  C         6.4201927777        9.7963391888        8.0251054106
  H         8.1462469085        9.0291890706        6.9693363499
  H         6.6440133425        9.0605143844        5.9919362891
  C         5.1541258595       10.6288788338        7.8829755151
  H         6.8710439132        9.9629830537        8.9871717871
  H         6.2745519682        8.6733660650        8.0607005959
  C         3.9524286322        9.8677069010        7.2984529671
  H         4.9388137659       11.1129814083        8.8598365351
  H         5.4022125353       11.4909197087        7.3110823213
  C         2.7277338390       10.7773444639        6.9990343844
  H         3.6085973837        8.9845344430        7.8801888781
  H         4.2410867351        9.4862067536        6.3749424831
  C         3.1736056734       12.0493204875        6.3388542547
  C         2.2216104307       11.4461151015        8.2410385120
  C         1.7036253278       10.1514693357        6.0686999382
  C         2.9327319339       13.1383422107        7.1524323381
  C         3.7300661812       12.4105428064        5.1373734402
  C         2.3243149382       12.7858719345        8.3024072870
  C         1.7473940141       10.8172706810        9.3812628129
  H         2.1184654801       10.1025104284        5.1218700825
  H         1.4028654342        9.1604896180        6.4706121542
  C         0.3810468139       10.9523804729        5.9403317859
  S         3.4729278520       14.6469757288        6.4021556734
  C         3.8355536137       13.7768961146        5.0220573738
  H         3.8887407819       11.6258399091        4.4483626098
  C         1.8743846548       13.3960374597        9.4290491957
  H         1.6819883018        9.6971561114        9.4322625050
  C         1.4923418000       11.4379980918       10.5511835309
  H         0.6150778408       11.8260405059        5.3638979750
  H        -0.0229697827       11.2396336472        6.8909536261
  C        -0.7307779708       10.2993523705        5.1090719208
  C         4.2150554519       14.4736455112        3.7763079976
  C         1.4610544540       12.7779784818       10.5696556948
  H         1.9167632360       14.4718025950        9.5050469610
  C         1.0489383279       11.0459470527       11.8029403212
  H        -1.4388554401       11.1547946033        5.0235617428
  H        -1.2516946418        9.4192480166        5.4585360832
  C        -0.2000055751        9.9815612328        3.6297328742
  C         4.1033545533       15.8172633195        3.4626303110
  C         4.7450498514       13.5789647579        2.7191594459
  C         1.0846337788       13.4280252512       11.9024478656
  C         0.7973749653       12.0980916577       12.6574429419
  S         0.8063350077        9.5780092666       12.5317539064
  H         0.6119207327        9.2863431845        3.6516769588
  H         0.2833693519       10.9127908613        3.3277395273
  C        -1.3281371418        9.5962077050        2.7086498768
  N         3.8355615670       16.8250212199        4.3836823233
  C         4.4152830663       16.2933548811        2.2236207954
  C         5.2328295570       14.0687630245        1.4878911726
  H         4.9944383101       12.5842067286        2.9503326355
  C        -0.3281888613       14.1804484307       11.6556739087
  C         2.1834712449       14.3024908030       12.5839769587
  C         0.4399303503       11.7875344610       13.9562859498
  C         0.5125400719       10.3573960427       14.0399991625
  H        -1.9278160354        8.7944206926        3.1253382388
  H        -1.9703648272       10.4869101990        2.5679932703
  C        -0.8102230749        9.1450541480        1.3160169586
  S         4.0880236064       18.2321151640        3.6209981507
  N         4.2494404908       17.6541484142        2.1357438124
  C         4.9844668828       15.5025510505        1.1728803723
  H         5.7771086654       13.4370744417        0.7899774575
  H        -0.2131685902       14.9735712463       10.9937144940
  H        -0.8060421254       14.7329156451       12.4521978460
  C        -1.4345479407       13.2589899118       11.0331958516
  H         2.3674014332       15.1874408620       12.0078404181
  H         1.7022981182       14.6197035875       13.4713672305
  C         3.5513891059       13.6027292399       12.6664717402
  H         0.2171534752       12.5606173031       14.6659393562
  C         0.3663902099        9.5951550072       15.3258800030
  H        -1.2377702736        8.2052056212        0.9707298069
  H         0.2531351954        8.8077969180        1.3696725188
  C        -0.9854435062       10.2580248256        0.2850022954
  C         5.2456075125       16.1451137437       -0.1411656938
  H        -1.0203465680       12.7811877680       10.1093235523
  H        -1.6524362351       12.4809576992       11.7701023578
  C        -2.6972659814       14.1544903528       10.6756567378
  H         3.9812146066       13.5891847646       11.6373100510
  H         3.4989494730       12.5490917730       13.1392973862
  C         4.4936316835       14.4265865547       13.5520913029
  C         0.1835743501        8.1729546008       15.4007514252
  C         0.2036926153       10.2528510080       16.6188488402
  H        -2.1049417221       10.4677113923        0.1726788902
  H        -0.5539886494       11.1921521348        0.5658809014
  C        -0.4884233897        9.8159863594       -1.1191772482
  H         5.1006647878       17.2428540292       -0.1152177797
  C         5.5794151451       15.7385107812       -1.4086156562
  H        -2.3842206081       15.0725249426       10.1534398351
  H        -3.1787029171       14.3910563813       11.6030422873
  C        -3.6308733618       13.3234379894        9.7945596031
  H         4.6933446101       15.3822591233       13.1346653428
  H         3.7832257567       14.6477729572       14.3739139578
  C         5.7351934628       13.6368132576       14.0669636349
  N         0.3965525750        7.2412369226       14.3767019557
  C        -0.0714891410        7.4761372289       16.5904908579
  C        -0.0850463551        9.6150672517       17.7914957501
  H         0.3902597609       11.2777187374       16.6616036029
  H        -0.4706945657       10.6994814068       -1.7458747551
  H        -1.1800459884        9.0061887144       -1.5392476352
  H         0.5180211267        9.5274214796       -0.9487927326
  S         5.8376594277       14.2069284930       -1.8826629322
  C         5.4997854656       16.7651943530       -2.5129113833
  H        -3.1258108442       12.9957879161        8.9044202427
  H        -3.7645611138       12.4029236610       10.3213877112
  C        -4.9893255289       14.0149135321        9.5612326382
  H         5.9399652909       12.7327414797       13.4726277045
  H         5.5618986146       13.3363846245       15.0595059993
  C         6.9377486190       14.5230203080       13.8778575818
  S         0.3189943913        5.7315392256       15.0154517994
  N        -0.2092131142        6.1154328537       16.4623645287
  C        -0.2374202550        8.1393437147       17.8163591021
  H        -0.1689036675       10.0979610597       18.7176748796
  C         5.9811185685       14.8314223570       -3.5138636928
  N         5.9106015837       16.1976496838       -3.6175020729
  O         5.2289966052       17.9518017205       -2.3261761297
  H        -5.2649492584       14.6830270566       10.3852151894
  H        -5.0154775323       14.7125586410        8.7356318331
  C        -6.1318619807       12.9912825832        9.3641114841
  H         7.8880863715       13.9538384742       14.0019442722
  H         6.9440057254       14.9946005829       12.9087323372
  C         6.9038684500       15.6721866755       14.8798780728
  C        -0.5553666291        7.3759439094       18.9932388857
  S         6.3681830670       13.8294393879       -4.8830229437
  C         5.8358595307       16.9597928510       -4.8526756386
  H        -5.9062996143       12.2294217111        8.7179423988
  H        -6.4322186590       12.4936981403       10.2484790163
  C        -7.3443262188       13.7976733506        8.7902862703
  H         6.7836363761       15.2026908671       15.8228892227
  H         6.1052389172       16.4016830221       14.7549982632
  C         8.1962806177       16.4993108391       15.0144682497
  H        -0.2979554791        6.3179702482       18.8828662168
  C        -0.9550762288        7.7600235194       20.2410231584
  H         6.5964112374       16.5295202806       -5.4994505248
  H         6.0660124010       17.9016009205       -4.5998767498
  C         4.4657231373       16.9948262068       -5.4071089513
  H        -7.9950390136       13.1711126968        8.1650135932
  H        -7.0921133399       14.6790318858        8.2374032647
  C        -8.1176062765       14.3376727560        9.9675014669
  H         8.2733626171       16.6942747749       16.0691252592
  H         9.0553627488       15.9732868141       14.6227965054
  C         8.1791003532       17.9214820661       14.3925367785
  S        -1.4442383225        9.2982441593       20.9393115039
  C        -1.0253884959        6.6284793959       21.2655655780
  H         4.4892450299       16.1972567030       -6.0685422195
  H         4.2312642888       17.9913040946       -5.8735762033
  H         3.5321680444       16.9003420087       -4.7325638926
  H        -7.5591526479       15.1064648386       10.5022959747
  H        -9.0446614991       14.7763413208        9.6362659380
  H        -8.3812210631       13.6019187603       10.7173561329
  H         7.3565018672       18.4689429490       14.7973689577
  H         9.0395314221       18.5199246884       14.4750631597
  H         7.8611065537       17.9717026952       13.3651182837
  C        -1.8589893989        8.3306489746       22.3882546185
  N        -1.5474029778        7.0501867737       22.4342864558
  O        -0.5223103091        5.5357461229       21.0733359253
  S        -2.3874211691        9.1206077448       23.8217606425
  C        -1.6624208233        6.2544307146       23.6540037755
  H        -1.7032550444        5.2063105460       23.3097057474
  H        -2.6485594444        6.4837516547       24.0600068123
  C        -0.4242668899        6.4296226102       24.5819840297
  H        -0.5486330496        7.0166878845       25.5528164108
  H         0.3877104229        6.8968854481       23.9861996572
  H        -0.0230682447        5.5116177905       24.9395800781
