352
i =
  H        -2.9827201811       15.1928224552       15.6371518814
  C        -2.9241127424       14.2117780287       15.9825377637
  H        -3.9555695692       14.0319098816       16.3254294879
  C        -1.8709399967       14.1328359018       17.0614722205
  C        -2.6433784769       13.2182575404       14.8584997517
  C        -2.4159295253       14.1106745574       18.4599677472
  H        -1.2693583270       13.2477765315       16.8550252160
  H        -1.2360599778       15.0331519057       16.7509427163
  H        -2.7434599628       12.2108107904       15.1357282017
  H        -3.4516211456       13.5229180028       14.1264425999
  H        -1.6720222752       13.4365896370       14.4176665420
  C        -1.4695052934       13.5511742226       19.4981752241
  H        -3.3198660498       13.4362817958       18.4499135091
  H        -2.7021930545       15.1623747622       18.6955434054
  C        -2.0441854946       13.6220601841       20.8884369954
  H        -1.2137140023       12.5475655735       19.2684644971
  H        -0.5526216574       14.1217229454       19.6217523565
  C        -1.1453969628       13.1516045662       22.0097129740
  H        -2.8369331022       12.8986027595       21.0600015862
  H        -2.3485850465       14.6531659440       21.1070871680
  C         0.0605993029       14.0818065037       22.3834124976
  H        -1.7254172744       12.8498991538       22.8602033924
  H        -0.6824327059       12.3038871111       21.5924413013
  C         1.2225410802       13.3362121045       23.1459063581
  H         0.4262942564       14.3534729116       21.3408439910
  H        -0.2967425351       15.0049184792       22.8019741271
  C         1.5161001977       11.9863006665       22.4290026022
  C         0.8661286007       12.5940873812       24.3749313522
  C         2.5089957101       14.2360386103       23.1410375045
  C         1.4952740932       10.9037341518       23.2576375485
  C         1.9813209110       11.7036020508       21.1528720976
  C         1.0526190975       11.2589271527       24.4731890809
  C         0.3188015451       13.1636986906       25.5456550328
  H         2.6402007844       14.5457849687       22.1671033788
  H         2.3406327804       15.2008683855       23.7323530725
  C         3.8254005411       13.5010527352       23.5395235623
  S         2.1901710730        9.4731883326       22.5458612970
  C         2.3278502807       10.3928064184       21.0419477589
  H         2.1217232761       12.4533531088       20.4020863206
  C         0.7613883756       10.5907463474       25.6637007715
  H         0.1054099659       14.2458855890       25.5533036659
  C         0.0201439998       12.5121826977       26.6901042973
  H         4.0790241445       12.7202645098       22.8016332194
  H         3.8553326501       13.0030653228       24.4572510985
  C         5.1104164750       14.2872606872       23.7494157853
  C         2.8871168651        9.5948007750       19.8681800380
  C         0.1518094769       11.1871676329       26.7680626607
  H         0.8872772837        9.5732125952       25.7729046712
  C        -0.4096748090       12.8196764043       27.8948212334
  H         5.7630986041       13.7904394093       24.4095607568
  H         4.8592673157       15.1739237510       24.3670717279
  C         5.8572831938       14.9194116994       22.5939839312
  C         2.8728960652        8.2581188266       19.6315844289
  C         3.3118470213       10.4198099686       18.7024964656
  C        -0.3209957903       10.4285552485       28.0367138733
  C        -0.6006839637       11.7326591398       28.7545245525
  S        -0.7946864127       14.3353154432       28.5641963631
  H         6.5357013905       15.7879834120       22.7374131391
  H         5.0377401962       15.4019524210       22.0674989412
  C         6.4710268387       13.9344301366       21.6204044497
  N         2.6831691790        7.2809236526       20.5946307749
  C         3.1665025333        7.6764663114       18.4173140410
  C         3.7047943025        9.8691129277       17.4773583868
  H         3.5159229403       11.5068575179       18.8573998958
  C         0.8513875699        9.6314742424       28.6880345092
  C        -1.6290664757        9.6736587617       27.7232394902
  C        -0.8282914583       12.1936400598       30.0746383574
  C        -1.0495767384       13.5664907030       30.1038932437
  H         7.5712823422       13.8159758530       21.8189230640
  H         6.0363869430       12.9562544016       21.7984144336
  C         6.2866884868       14.2533701452       20.1217752496
  S         2.4729726013        5.8811586387       19.8673572492
  N         2.8593210829        6.3505252401       18.4037583357
  C         3.5143775053        8.4527661453       17.2391899292
  H         4.2429914536       10.5293873866       16.7828403932
  H         1.1232364934        8.7488724571       28.1021701201
  H         0.3736598299        9.3873156110       29.6433834910
  C         2.0190935519       10.4160149980       29.0185700458
  H        -1.3941764762        8.7325501558       27.3485689105
  H        -2.0347710963        9.3742622933       28.7434570263
  C        -2.8541270143       10.5635377720       27.2040345840
  H        -0.9289198705       11.4103500849       30.8228296592
  C        -1.4890328360       14.3598634289       31.3436625630
  H         6.2802029385       15.3125980747       19.9922272314
  H         5.3135925170       13.7993343646       19.8509447405
  C         7.3736082767       13.5396152627       19.2457245286
  C         3.6352010933        7.7970291135       16.0253990547
  H         2.2776802151       10.9679948477       28.0474829307
  H         1.9501025873       11.1618689870       29.8197569618
  C         3.1846351494        9.3918794413       29.3111622951
  H        -2.5108665078       11.0558974117       26.2654524384
  H        -2.9998284737       11.4546977080       27.8369131524
  C        -4.1448204218        9.8676922075       26.9098585709
  C        -1.6513530405       15.7760446928       31.4723026643
  C        -1.8055361340       13.6492104313       32.6197212647
  H         8.2317493393       14.1755583068       19.1862213263
  H         7.7372177750       12.6091753485       19.7303171101
  C         6.9333711487       13.4201944731       17.7681885827
  H         3.2618772890        6.8116297059       16.0704379687
  C         3.9175579927        8.2998409689       14.7686069201
  H         3.1244173810        8.6532425594       28.4370435754
  H         2.9366164695        8.7381612126       30.2107013852
  C         4.6085651385       10.0421327748       29.4858860550
  H        -3.9678626939        9.2470427577       25.9823530368
  H        -4.3821040524        9.1854356663       27.6594094976
  C        -5.2727816008       10.8056873264       26.5919716487
  N        -1.3270487759       16.7191741742       30.4434751943
  C        -2.0034839496       16.4392835523       32.6651997015
  C        -2.2059327333       14.2746051392       33.7508053552
  H        -1.7799084434       12.5893081397       32.5549976774
  H         6.7490136860       14.4035352912       17.2864180573
  H         7.8100379254       13.0271065857       17.2403925439
  H         6.1027686151       12.7452163150       17.6877604005
  S         4.2866514919        9.9363948592       14.3911044648
  C         3.8252452541        7.3149434825       13.6684976553
  H         4.7170425804       10.8326319465       28.7145845180
  H         4.6731423292       10.5317404022       30.4587799950
  C         5.7091556300        8.9466929287       29.3365259850
  H        -5.0021544946       11.5047494311       25.8120722389
  H        -5.3854216078       11.4734285548       27.4393350166
  C        -6.5500189235       10.0497826535       26.1565535116
  S        -1.5837176493       18.2235195815       30.9858692482
  N        -2.1265891101       17.8408468487       32.4412111147
  C        -2.4491854225       15.7736763104       33.8085568862
  H        -2.2339041882       13.7203602770       34.6448427450
  C         4.4320532397        9.2886288212       12.7338130162
  N         4.2004934492        7.9612561713       12.5526061479
  O         3.4792186668        6.1150982411       13.7026237029
  H         6.6070552415        9.4420393789       28.9307790513
  H         5.5909325832        8.3271929589       28.4252925210
  C         6.0293810843        8.1835628899       30.6269812192
  H        -6.1418782484        9.3061083100       25.5588701863
  H        -7.1238033124        9.7318093773       27.0200709067
  C        -7.5090518307       10.8854279494       25.2614933349
  C        -2.7638454221       16.5436231952       34.9607776869
  S         4.8659840033       10.2200004479       11.2835286846
  C         4.3819491392        7.3339111896       11.2573336809
  H         7.1056014734        7.9459256446       30.5908285868
  H         5.7430393355        8.8303854039       31.4835953616
  C         5.4356566537        6.7855736413       30.6563878954
  H        -7.1265853955       11.2621877250       24.2838955081
  H        -7.7087467989       11.8404845758       25.8210425929
  C        -8.8361043306       10.0495351705       24.9673592063
  H        -2.3532114294       17.5688194320       35.0324299848
  C        -3.4135958047       16.1141868270       36.0800733415
  H         5.3914122524        7.5111551712       10.8191271963
  H         4.4990696850        6.2871170997       11.4478560825
  C         3.1915286763        7.4419039239       10.3161692587
  H         5.5224880119        6.2910970370       29.6982186808
  H         4.3868919226        6.8896171034       30.7949130453
  C         6.1513601623        5.8499714534       31.6522748270
  H        -9.2347469571       10.5018800706       24.0045767456
  H        -8.6034335837        9.0419180228       24.6851958378
  C        -9.8844494520       10.0156298143       26.1005345762
  S        -4.2268772003       14.6319083706       36.2892671462
  C        -3.4033437077       17.0408208785       37.2082234098
  H         2.7272672039        6.4672601767       10.2254360310
  H         2.5166560402        8.1611070250       10.6928237884
  H         3.5774743369        7.8007082735        9.3738023192
  H         6.5248610311        6.4741871063       32.4403970170
  H         6.9726578977        5.3469901435       31.1550586709
  H         5.5539859613        5.0595013363       31.9922217457
  H        -9.4558184329        9.3451171000       26.8577961897
  H       -10.7656846073        9.5689100971       25.7266412981
  H       -10.2028333369       10.9438790410       26.4853376064
  C        -4.6434772136       15.2601451781       37.8763740426
  N        -4.1226882695       16.5179653941       38.1763236381
  O        -2.6135010578       18.0231772020       37.3050142187
  S        -5.3119091449       14.2615294257       39.1775948355
  C        -4.1651225229       17.0578346033       39.4785754290
  H        -4.1871866579       18.1497078979       39.3842745406
  H        -5.1700158854       16.8459275124       39.9957183314
  C        -2.9861594759       16.6673471000       40.2847258977
  H        -2.3390778524       15.9029352929       39.8191461121
  H        -2.3357983280       17.4781877744       40.6266619311
  H        -3.3975101578       16.1667310728       41.1957812510
  H         8.2910421896       12.0606847678        3.7462730633
  C         8.5134093727       10.9904711803        3.7883806568
  H         7.4937829272       10.5204700178        3.7801352425
  C         9.2848313382       10.5826817886        5.1106401079
  C         9.2275116718       10.6861826432        2.4577755514
  C         8.4356619264       11.0135613331        6.3251561974
  H         9.5044052456        9.5089029417        5.2438421185
  H        10.2596461852       11.0984940234        5.1570510898
  H        10.0858575902       11.3563496696        2.4371683954
  H         8.4747210322       10.9178177133        1.6378495969
  H         9.5057525829        9.6074643615        2.4007428481
  C         7.5855773428        9.9483705076        6.9012297822
  H         9.1012941075       11.4814828721        7.0831240294
  H         7.7926698484       11.6906952385        5.9942152853
  C         6.7971142298       10.2678957910        8.1456761106
  H         8.3472557902        9.1575214694        7.0740197339
  H         6.9244730375        9.5879390238        6.1023854758
  C         5.6828627615       11.2378508310        7.7764671451
  H         7.5018979680       10.7776970381        8.8451709222
  H         6.4090816487        9.3217401081        8.6604278923
  C         4.4540651849       10.5620431649        7.2102025323
  H         5.3990259451       11.7401156082        8.6830099218
  H         6.0784621181       11.9540943939        7.0635712842
  C         3.2687052990       11.5319567342        6.9560832719
  H         4.1065958526        9.7332038128        7.7563701149
  H         4.6867386814       10.1829419692        6.2320638908
  C         3.7171427718       12.8633570412        6.3252775150
  C         2.8127117110       12.2659043611        8.1785859572
  C         2.1440245630       10.9578474741        6.0502984040
  C         3.4562488568       13.9962947005        7.1168822542
  C         4.3575604936       13.1431160946        5.0948371243
  C         2.8268302737       13.6269737050        8.2913839549
  C         2.4181244201       11.6414736219        9.3959641050
  H         2.5844230318       10.5066874333        5.1535599619
  H         1.4843838978       10.1930341532        6.5735040473
  C         1.1760297268       12.0257041788        5.5429184854
  S         4.0115588023       15.4217861635        6.3136839406
  C         4.5740005257       14.5143924278        4.9343097625
  H         4.5398301063       12.3012861951        4.4054717373
  C         2.3567715734       14.2407049201        9.4286942066
  H         2.3777007543       10.5605586756        9.4230625952
  C         1.9036609144       12.2649309717       10.5089942377
  H         1.5965519058       12.7514333711        4.9202969859
  H         0.6303306107       12.5502980410        6.3600620270
  C         0.0231337285       11.4308964537        4.6378292918
  C         4.9578693849       15.1796028432        3.6058211702
  C         1.8071575024       13.6063983936       10.5694933090
  H         2.3409353760       15.3257458673        9.4191004150
  C         1.4445442332       11.8377721569       11.7122534253
  H        -0.8349935865       12.0913626869        4.5071154540
  H        -0.4147678892       10.5420428788        5.0581334559
  C         0.6521701928       11.1940621794        3.2692638916
  C         4.8398420222       16.5523296888        3.2727596146
  C         5.3932768714       14.3290349612        2.4207140786
  C         1.2509481169       14.2398643867       11.8050267818
  C         1.0674272988       12.8825335197       12.4983875802
  S         1.3662277759       10.3139351396       12.4798235881
  H         1.5475109444       10.5993348246        3.3925229144
  H         1.1571337840       12.0352213828        2.8532509666
  C        -0.3963524891       10.5981776901        2.3072687244
  N         4.2870385445       17.5473653879        4.1634616164
  C         5.0292559366       17.0900850984        2.0007212238
  C         5.6793581089       14.8777008210        1.1528575993
  H         5.4338851550       13.2506677052        2.5113531937
  C        -0.0746421774       14.8761398363       11.5168818085
  C         2.2735697620       15.0634120105       12.6291306177
  C         0.8075996459       12.4648381421       13.8458048623
  C         0.7794337729       11.1394553665       13.9497231838
  H        -0.9631759975        9.6935153740        2.7087778731
  H        -1.0815288386       11.3371796518        2.1621369349
  C         0.3559785353       10.2488952407        1.0671488393
  S         4.2123209763       19.0208259662        3.4207253027
  N         4.6538607267       18.4794398211        1.9336858044
  C         5.5216046168       16.3340155711        0.9029667959
  H         6.2217328825       14.2206304153        0.4273403485
  H         0.1318045862       15.8428000833       10.9801978000
  H        -0.5307907654       15.0616833119       12.4780931401
  C        -1.1583195009       13.9602868646       10.7761627303
  H         2.3429001222       15.9841887059       12.1621943583
  H         1.7478039516       15.2240162495       13.5779185444
  C         3.6165480049       14.3726021757       12.7842102513
  H         0.5516958934       13.2267406951       14.4825368456
  C         0.5536673162       10.3736910111       15.2465720602
  H         0.1769061339        9.1978707600        0.6890980945
  H         1.4334807807       10.3519574483        1.2177249192
  C        -0.0213788230       11.0634001966       -0.1295634500
  C         5.7611191472       17.0832314443       -0.2700436760
  H        -0.7513063395       13.4817412978        9.8794929076
  H        -1.4897281884       13.1981832569       11.4264472983
  C        -2.4314592659       14.7339692519       10.3753428940
  H         4.0048637981       14.0310655291       11.8238581873
  H         3.5350857865       13.4714455445       13.4120671080
  C         4.5300159162       15.1711371070       13.7312480760
  C         0.4933343050        8.9474663688       15.2888868272
  C         0.3013452378       11.0712205382       16.5001727992
  H         0.1008230482       12.1032113838        0.0940569526
  H         0.5594743803       10.8905627062       -1.0086017863
  C        -1.4362648695       10.6827818754       -0.6549864115
  H         5.7547424252       18.1488165817       -0.2087658031
  C         5.9191876507       16.6109653171       -1.5823710575
  H        -2.1059731890       15.6206216245        9.8712464169
  H        -2.8917166759       15.1926124818       11.1525712756
  C        -3.2877097268       13.8473098995        9.5302320310
  H         4.0935025101       16.1798476286       13.8234150562
  H         4.6285355583       14.6894092077       14.7169551114
  C         5.9092749539       15.2990961992       13.2052448153
  N         0.5243094033        8.0165438655       14.2137570215
  C         0.2258206650        8.2284317192       16.4273861511
  C         0.0926855747       10.2740617381       17.6190362633
  H         0.5003637152       12.1572753107       16.5333503633
  H        -1.9273588324       11.3654097071       -1.2938030361
  H        -2.1670128503       10.5853094722        0.1084201594
  H        -1.3368964792        9.8326358760       -1.3201009917
  S         6.0060177036       15.0316689701       -2.0466093673
  C         5.9446359239       17.6255022790       -2.6987714127
  H        -2.9540256410       13.9305607545        8.5167352788
  H        -3.2274583653       12.8351399962        9.9171192532
  C        -4.7098853214       14.4063396869        9.7283757703
  H         5.8473540728       15.2478004937       12.1136107466
  H         6.5110494561       14.5029844010       13.6135456796
  C         6.4303871095       16.6613018572       13.6133208098
  S         0.4461282903        6.4824854953       14.6276141295
  N         0.0739513592        6.8463520073       16.2314143204
  C         0.0725940156        8.8167410558       17.6347694781
  H        -0.0011376695       10.6862416150       18.5867820045
  C         6.1505293499       15.5548397252       -3.7381080622
  N         6.1607206126       16.9075422822       -3.8735301281
  O         5.9703998054       18.8156518625       -2.4950056035
  H        -4.8960168296       14.3850826786       10.7910762818
  H        -4.7465990713       15.5088293033        9.5402642877
  C        -5.8456967155       13.7536766644        9.0578303198
  H         5.8773509721       17.4548932989       13.1465280152
  H         6.2455703511       16.9030884474       14.6754594222
  C         7.8507198746       16.8004007967       13.3005122282
  C        -0.2323617185        8.0004300664       18.7546785374
  S         6.4214704631       14.5632496805       -5.1899950899
  C         6.1708960243       17.5893570801       -5.1598486507
  H        -5.5508402684       13.3906653111        8.0893427666
  H        -5.9848468078       12.7493709266        9.4800298172
  C        -7.2042968426       14.5302861145        8.9142963216
  H         7.9883743574       16.9411200641       12.2548179197
  H         8.3454417149       15.8690894837       13.6442655810
  C         8.5283194755       17.8841171078       14.0538763050
  H         0.1395151486        6.9446829745       18.7091310319
  C        -0.9216857817        8.2591505367       19.9518233592
  H         6.9083841611       17.1786936446       -5.8401729968
  H         6.4929689105       18.6652557741       -5.0305004387
  C         4.7678673526       17.7331734311       -5.7690812659
  H        -7.7378281412       14.1976494094        8.0657302531
  H        -6.9886426106       15.5652516473        8.7494821106
  C        -7.8546835786       14.4940287334       10.3474367959
  H         9.5964471895       17.6377008964       13.9413020582
  H         8.2959209559       18.8447777062       13.6643187698
  C         8.2240495504       17.8868929915       15.5295093710
  S        -1.5657816012        9.7951412315       20.4140652870
  C        -1.1115240752        7.1410269012       20.9114039891
  H         4.0293504470       18.2483130491       -5.0930138442
  H         4.3255698140       16.7534366834       -6.0533624340
  H         4.8187426149       18.2492485849       -6.7235433869
  H        -7.8722579727       13.5134411823       10.7312491687
  H        -7.4002540033       15.0938316495       11.0620982534
  H        -8.8373580759       14.9127165534       10.2392111717
  H         8.0284327524       16.8883158160       15.9226733258
  H         9.1094591117       18.3364066822       16.0408182606
  H         7.3945207512       18.5924956982       15.7313033763
  C        -1.9299626158        9.0127110781       21.9361048303
  N        -1.6582202706        7.6851474321       21.9797489699
  O        -0.8835452975        5.9492283894       20.7499529297
  S        -2.5799390403        9.7699149521       23.3717340218
  C        -1.8074656660        6.8326530505       23.1381439568
  H        -2.0505017427        5.7662880454       23.0088125895
  H        -2.7548115552        7.1912231547       23.6123247614
  C        -0.5548992712        7.0409783004       24.0183906517
  H         0.0049495871        7.9357335657       23.7230728573
  H         0.1246659982        6.1954284871       23.8894564766
  H        -0.7370049807        7.1267403401       25.1156517264
