352
i =
  H        -3.7636572676       13.1812376080       16.2580003663
  C        -2.7895340781       13.7122291790       16.1996822685
  H        -2.0180154148       13.1362831449       16.5607761432
  C        -2.8181763622       14.8093218728       17.2427424772
  C        -2.5613406167       14.1558874085       14.7588119341
  C        -3.1813961691       14.1552316249       18.5263544932
  H        -1.8886380494       15.3904156950       17.2221419595
  H        -3.5494160577       15.5320110677       16.9596327520
  H        -2.2405953802       13.3249590241       14.1687613857
  H        -3.5097196006       14.3730924702       14.4307648673
  H        -1.8944681574       15.0082958377       14.6473063722
  C        -2.0059300834       13.8952078779       19.4411461378
  H        -3.8197137151       13.3287370175       18.4585523962
  H        -3.6882917296       14.8782781027       19.1169772700
  C        -2.5156880402       13.6344700429       20.8204426867
  H        -1.4664334055       13.0581683908       19.0109577480
  H        -1.4148445478       14.8459775138       19.5459881877
  C        -1.3827421614       12.9615768200       21.5668978205
  H        -3.3453147041       12.9064417650       20.7225594166
  H        -2.8549483613       14.4977512287       21.3291841892
  C        -0.1686089646       13.8605578499       22.0850928033
  H        -1.8040266045       12.2473073704       22.2657873022
  H        -0.8556076859       12.3114839238       20.8941349811
  C         0.8707952819       13.1358735290       23.0111367223
  H         0.3491538245       14.2683965727       21.2791289965
  H        -0.5543593412       14.7689433779       22.6856635845
  C         1.3407538186       11.8156496557       22.3742203933
  C         0.3790741196       12.4913468167       24.2063275706
  C         2.1315244260       14.0073541862       23.3705914158
  C         1.1327723124       10.6926186374       23.2124400814
  C         1.9109067493       11.5147759416       21.0822918866
  C         0.5272265018       11.1535280656       24.3451599458
  C        -0.1111172982       13.0991699652       25.3050563112
  H         2.4674992553       14.3886792601       22.4602678949
  H         1.7780040257       14.8462358890       23.9836174975
  C         3.3117342181       13.3011515201       23.9738861158
  S         1.7267854682        9.2891419829       22.5094144020
  C         2.0946782719       10.1971496788       21.0176151747
  H         2.0919778044       12.2570221900       20.2996668176
  C         0.1144804410       10.5212057031       25.5138411403
  H        -0.0791790389       14.2034263540       25.2649800419
  C        -0.4233763916       12.4937721440       26.4719732678
  H         3.7961789270       12.4885097280       23.3843000676
  H         2.9500230999       12.8633184631       24.9460338001
  C         4.5306250875       14.2274217645       24.2969868243
  C         2.4774268695        9.5021409945       19.7283739278
  C        -0.2712534128       11.1501015231       26.6134049008
  H         0.2160405148        9.4603079261       25.6817672648
  C        -0.7549317487       12.8827474831       27.7204336121
  H         5.2420152493       13.6224208215       24.8217438171
  H         4.2183574123       14.9710748582       25.0374171132
  C         5.1322840084       14.8385843318       23.0401925853
  C         2.3723104125        8.1252197155       19.4518095383
  C         3.0196491959       10.2795798177       18.5734910077
  C        -0.5722939235       10.3960283014       27.9062441118
  C        -0.9238934712       11.7735015676       28.5713559644
  S        -1.1064790195       14.3733805713       28.4127004063
  H         5.8026659072       15.6709650717       23.3224623496
  H         4.4865113836       15.4858961022       22.4865598667
  C         5.9315536396       13.7550828466       22.2210633372
  N         2.0207671143        7.1875719768       20.3689618620
  C         2.6211893249        7.5763980250       18.1981391876
  C         3.1869666524        9.7552232387       17.3360184278
  H         3.4184866437       11.2939399610       18.7319737197
  C         0.6907964958        9.6920584305       28.4709003741
  C        -1.6492836939        9.3944842293       27.7918005470
  C        -1.3002845603       12.1767584121       29.8517617525
  C        -1.3456077744       13.5621797654       29.8972773771
  H         6.9561473510       14.1576402592       21.9965909108
  H         5.9542884545       12.7505920871       22.7612560880
  C         5.2893966103       13.5051110661       20.8273308615
  S         2.1068271471        5.7464920684       19.6626890748
  N         2.5208093443        6.1991055984       18.1407709808
  C         3.0265068282        8.2563561303       17.0700745602
  H         3.6766796092       10.3056365756       16.5854378352
  H         1.2671654476        9.1287688024       27.7223097206
  H         0.5665972354        8.9303397377       29.2276290308
  C         1.7911616906       10.6590483766       28.9020773762
  H        -1.3416578168        8.4706496327       27.3631294006
  H        -1.8904070123        9.1795593629       28.8555401203
  C        -2.8595145154       10.0148900812       27.1415924376
  H        -1.4076857487       11.5488455217       30.6460161646
  C        -1.5911626401       14.3343387952       31.1578928411
  H         4.3171850813       14.0305030651       20.7518454843
  H         5.0924420275       12.3901924805       20.7053836138
  C         6.2634162725       13.8266430371       19.6870547353
  C         3.3173710869        7.5961632048       15.8344284244
  H         2.1234746999       11.1788588504       28.0123525208
  H         1.4492877035       11.2312670639       29.7082195540
  C         2.9828004347        9.8845410224       29.4762720588
  H        -2.7052572537       10.3351144449       26.1212225378
  H        -3.2492044645       10.8453739782       27.7630660925
  C        -3.9593987473        8.9542211502       26.9511283382
  C        -1.7495284878       15.7510587819       31.2945434718
  C        -1.7857197095       13.4985326863       32.4001711566
  H         5.7254207009       13.5404505126       18.7901818850
  H         6.4300883685       14.8625842344       19.6639771642
  C         7.5953463408       13.0869658464       19.7865893481
  H         3.4102436346        6.5708655508       15.9625155799
  C         3.6600901392        8.0229493744       14.5802762811
  H         3.5241783513        9.3686622427       28.6904479642
  H         2.6715374098        9.0781172761       30.1562308461
  C         3.8429270268       10.9465964620       30.1607606617
  H        -3.6667323336        8.3740486441       26.0682101022
  H        -4.0601813510        8.2715768697       27.8187247450
  C        -5.4141831325        9.5150052535       26.8876810920
  N        -1.7725735415       16.7135427879       30.2845818739
  C        -1.9204485396       16.3272381354       32.5083300701
  C        -2.1331474685       14.1575745743       33.6315077763
  H        -1.9726466202       12.4504714697       32.3385950746
  H         8.3207435372       13.8476991905       20.0806875958
  H         7.6240218570       12.2337885167       20.5262251610
  H         7.9395611750       12.6886967605       18.8001985603
  S         3.9515297275        9.7041712896       14.1152521058
  C         3.6301045447        7.1064570751       13.3853105729
  H         3.9875228792       11.7424187462       29.4234343414
  H         3.3148473934       11.4760481291       30.9498310264
  C         5.2250298862       10.4057197091       30.5115473579
  H        -5.4838086594       10.3763951500       27.4833652576
  H        -6.0691897270        8.7648735569       27.3441021917
  C        -5.8743439342        9.8724713196       25.4434182416
  S        -1.8387272979       18.2216180467       30.9003349738
  N        -1.9859616660       17.7751512679       32.4700532753
  C        -2.1895090859       15.6465810788       33.6899159388
  H        -2.3746109832       13.5584634592       34.4584611937
  C         4.0047536379        9.1303361971       12.4117588089
  N         3.9085836091        7.7635925171       12.2653613957
  O         3.5595291591        5.8848951915       13.4812285283
  H         5.6789991551       11.1808162286       31.0728042514
  H         5.8410439747       10.3386159773       29.5565288957
  C         5.0498622930        9.1972687115       31.4321705207
  H        -5.1632954850       10.6223750012       25.0217759482
  H        -5.7616409616        8.9377591536       24.8578355875
  C        -7.3040525008       10.4630725953       25.3415580654
  C        -2.5583637414       16.3689147401       34.8325231307
  S         4.5491069111       10.0873273660       11.0249696948
  C         3.8795118524        7.1403857056       10.9200544330
  H         5.8328485610        9.1986664116       32.1566957743
  H         4.1110102260        9.4105459615       31.9422545874
  C         5.0363862249        7.8166099724       30.8101313636
  H        -7.4225278173       11.0992436321       24.4066397297
  H        -7.4883070058       11.1865463225       26.1730243777
  C        -8.3696084406        9.3781572904       25.1187215175
  H        -2.5240408112       17.4182373942       34.7535943006
  C        -3.0241552609       16.0522550913       36.0612683668
  H         4.7106919802        7.4072583903       10.3144602438
  H         3.9177648795        6.0629772279       10.9264387986
  C         2.5238593183        7.4854888929       10.2575532912
  H         5.3082025538        7.9874944146       29.8459275263
  H         4.0118547326        7.3846518636       30.7811392949
  C         6.0693856039        6.9172010609       31.4612348369
  H        -8.1264792873        8.8273465387       24.2376295992
  H        -8.2515293254        8.5583329739       25.8130854326
  C        -9.8029785140        9.7853641490       25.0093402596
  S        -3.3728289630       14.4827685808       36.6866969958
  C        -3.2644510911       17.1548885987       37.0100686691
  H         2.6516683023        8.0623144028        9.4201400934
  H         2.1715195451        6.5228561408        9.8567249438
  H         1.7330417566        7.8375303320       10.8643465660
  H         5.8895927324        6.8544800307       32.5349741109
  H         7.0280307555        7.3425921300       31.2475415253
  H         6.1831005614        5.9632231563       30.9363665112
  H       -10.0716300407       10.6606889690       25.6049108809
  H       -10.5553374875        9.0417734566       25.3624288047
  H       -10.0687462978       10.0873063363       24.0019450535
  C        -3.9150605589       15.3365622943       38.2018827390
  N        -3.8739381170       16.6769986244       38.1587171857
  O        -2.9105939808       18.3391159405       36.8656920087
  S        -4.6346202934       14.6399505876       39.7059063010
  C        -4.1445707137       17.6671601915       39.2272064823
  H        -4.4328278726       18.5688442315       38.8021163141
  H        -4.9987992763       17.3797962609       39.7821091039
  C        -2.9543964568       17.8058851500       40.2401318455
  H        -3.1245462910       18.6214905506       40.9560549059
  H        -2.8925028151       17.0628253260       40.9816160900
  H        -2.0005629749       17.7935166386       39.6872019416
  H         6.7990272949       11.2897605873        3.2895777546
  C         7.5554688007       10.5023910529        3.3777096378
  H         6.7763564620        9.7224977984        3.4135143056
  C         8.3832666318       10.6084282275        4.6485820174
  C         8.4182128755       10.3096249007        2.0525499316
  C         7.5536503906       10.8960569314        5.9266468965
  H         8.9195094512        9.6505142651        4.7716371302
  H         9.0871049004       11.4376224268        4.5920073884
  H         8.9729786347       11.2157324167        1.9413689268
  H         7.8327040999       10.1294593105        1.1948084962
  H         9.2382463708        9.5848027252        2.0809064081
  C         6.8699448995        9.7240827420        6.4786225498
  H         8.1829820702       11.4283480875        6.5858957023
  H         6.8437527445       11.6475866638        5.6126910149
  C         6.2163303902       10.0257097657        7.8295988404
  H         7.7124725358        9.0247006709        6.6587255765
  H         6.1781055877        9.2901523000        5.7624723949
  C         4.9744109877       10.8923235976        7.6992539321
  H         6.8613955559       10.6778322555        8.4118595661
  H         6.0424113262        9.0546325925        8.3541581813
  C         3.8695631117       10.1868161758        6.9220600387
  H         4.4727577039       11.0994939947        8.6763252101
  H         5.2059250985       11.8622103767        7.3051827885
  C         2.5320204232       11.0382768898        6.8988918442
  H         3.6263340709        9.2649957069        7.3951298848
  H         4.1263851671       10.1139523778        5.9090621914
  C         2.8694234328       12.3549138756        6.1109089321
  C         2.1094490457       11.7927125822        8.0965430921
  C         1.3262719814       10.3396628350        6.2036180195
  C         2.7097132051       13.4772895198        6.9039421263
  C         3.3539680678       12.7699007991        4.8657113821
  C         2.1797353753       13.1175188059        8.1762510119
  C         1.6952140784       11.2285028486        9.2794290076
  H         1.7952092654       10.0242032336        5.2710496399
  H         0.8226107175        9.5743865843        6.8103664941
  C         0.1885505915       11.3357806904        5.8692850805
  S         3.0345091691       14.9780857230        6.0830237323
  C         3.5928064004       14.0925448106        4.7565415470
  H         3.6540424455       12.1144572655        4.1066051816
  C         1.9398947910       13.8036244732        9.3578157589
  H         1.5701209194       10.1460230915        9.2615664178
  C         1.3728642301       11.8914063349       10.4349959838
  H         0.5098123529       11.9815571391        5.0467095244
  H        -0.0979003770       11.8679152864        6.7509967416
  C        -1.0544808410       10.7388996425        5.1164021694
  C         4.0194149161       14.7414658338        3.4393727603
  C         1.4133663575       13.2504703134       10.5232242535
  H         1.9867699430       14.9232590738        9.3798342040
  C         1.0436675524       11.4940729936       11.7244329584
  H        -1.7691802739       11.5376988610        4.9356988836
  H        -1.5408517974       10.0741388373        5.8029714959
  C        -0.7385578459        9.9229584963        3.8738607199
  C         4.0104772140       16.1499598308        3.1819016097
  C         4.4393785233       13.8466076197        2.3753722636
  C         1.0507137015       13.9458889132       11.8211517850
  C         0.8075971611       12.5833259284       12.5463442569
  S         0.8684606921        9.9306079070       12.4430014589
  H        -0.6539584780        8.9186775213        4.2872637777
  H         0.2405462259       10.2219588265        3.5582251622
  C        -1.8253675697        9.9290539493        2.7823139421
  N         3.6094894047       17.1264621224        4.1034682216
  C         4.2568234836       16.6479036102        1.9245350157
  C         4.6235058438       14.3903595822        1.1169914509
  H         4.6155870229       12.8353917507        2.5970802824
  C        -0.1990353909       14.7926396918       11.5634810424
  C         2.1813151309       14.8076994142       12.4998963836
  C         0.3658219525       12.0966128277       13.7958743147
  C         0.3986794165       10.6963011634       13.9263452258
  H        -2.7550312836        9.5061991230        3.1865794663
  H        -2.2081939268       10.9465969958        2.6138202705
  C        -1.3576374445        9.2857403527        1.4954617600
  S         3.6301638186       18.5927855200        3.4635913013
  N         4.1412362640       18.0640046058        1.9549262533
  C         4.5949662962       15.8325195624        0.8405849189
  H         4.9605399350       13.6782158659        0.3874471039
  H        -0.0667520327       15.3783888429       10.6654240494
  H        -0.3748203799       15.4168184426       12.4172677405
  C        -1.4265610969       13.8511915273       11.3395428503
  H         2.6669886305       15.4157979504       11.7038777475
  H         1.6884249281       15.5438923090       13.1613797472
  C         3.2273860751       13.9750845855       13.3132167481
  H         0.0280043125       12.7768680390       14.5938021859
  C         0.1432099757        9.8489215751       15.1659536169
  H        -2.2762453792        8.9767123165        1.0225592390
  H        -0.6247442194        8.4775430627        1.5845039112
  C        -0.5660504726       10.3198908119        0.5761849271
  C         4.9158591338       16.4567260158       -0.4290935690
  H        -1.1285828827       13.2114409124       10.5469019695
  H        -1.6918013030       13.2159509386       12.2286437669
  C        -2.7275379376       14.6338543139       11.0234765622
  H         3.5752831907       13.1007667579       12.7911652591
  H         2.7214206919       13.5998920962       14.1989955460
  C         4.4999619713       14.7284179656       13.8491407539
  C         0.0182199664        8.4664148845       15.2976374113
  C         0.0779167025       10.5805843206       16.4742128536
  H        -0.6380120033       11.3164189771        0.9908218563
  H         0.4626446973       10.1387867220        0.5941731976
  C        -1.1049456016       10.2434654997       -0.8502702194
  H         5.1947194092       17.4964768876       -0.3001794894
  C         5.1740718143       16.0235492383       -1.7188348472
  H        -2.3486870883       15.5114749939       10.4928280324
  H        -3.1293028683       15.0547701969       11.9547890733
  C        -3.7056760578       13.7758134246       10.1045428309
  H         4.9782132154       15.1266664120       13.0213480591
  H         4.1431261804       15.4552876182       14.5094989864
  C         5.4649189555       13.7384572239       14.5136534563
  N         0.1194392253        7.5360431919       14.2798174433
  C        -0.3820033844        7.8870303733       16.4493000402
  C        -0.2419167871        9.9669406822       17.6624228277
  H         0.4856236554       11.5663445231       16.5677786104
  H        -0.3514713009       10.5611322734       -1.5385396804
  H        -2.0420240955       10.8462507171       -0.9210593096
  H        -1.3978065953        9.2406541024       -1.0356850112
  S         5.2472653017       14.3961929076       -2.2176733659
  C         5.3452657810       17.0329708347       -2.8446031775
  H        -3.1498137418       13.6380982571        9.2189533244
  H        -3.8566571065       12.8171551663       10.6068930341
  C        -5.0314327464       14.4493085061        9.8504724901
  H         5.7023570605       12.7924837691       13.9108138477
  H         5.1283282872       13.5541036922       15.4692291379
  C         6.8364310066       14.4216768342       14.6797589337
  S         0.0420251275        6.0576662083       14.8623997781
  N        -0.4583748502        6.4771769350       16.3220637560
  C        -0.7486559824        8.5084090679       17.6715780948
  H        -0.0855901898       10.5109039015       18.5894832851
  C         5.5628822512       14.9700640291       -3.8060546218
  N         5.5166052322       16.3332342052       -3.9550727756
  O         5.3371352833       18.1920717633       -2.6579251297
  H        -5.5095288652       14.6360421128       10.8360357591
  H        -4.9593102429       15.4121955178        9.3987304268
  C        -6.0078849740       13.5820397141        9.0275848440
  H         7.7073871861       13.7350261481       14.8582123590
  H         6.9312070418       14.7847517649       13.6734782285
  C         7.0185272445       15.5179400480       15.7647940008
  C        -1.1386924571        7.7008157591       18.7939318525
  S         5.7092275148       14.0048776581       -5.2743788661
  C         5.5910079452       17.0707188971       -5.1968309839
  H        -5.7028587300       13.6150495423        7.9925416898
  H        -5.9200835583       12.6000292334        9.4495390697
  C        -7.3601674153       14.2059553105        9.1292692816
  H         7.2524365592       14.9254212870       16.6326540653
  H         6.1213211060       16.0487101794       16.0185078172
  C         8.0890376030       16.4910534275       15.3844300349
  H        -0.9352751367        6.6552418715       18.7060505870
  C        -1.5305558932        8.0242364307       20.0471520770
  H         6.3962961657       16.6160600550       -5.7386873683
  H         6.0215311398       17.9872976461       -4.9536692814
  C         4.2313662525       17.3170095251       -5.8117919619
  H        -7.9208747725       14.1647485946        8.2242069651
  H        -7.3370718212       15.3124767681        9.2414360794
  C        -8.1577581858       13.8212954093       10.4120643964
  H         8.6619124252       16.5586144372       16.3072298461
  H         8.7880655102       16.0301797265       14.8202942643
  C         7.6492820908       17.8751301289       14.9336394606
  S        -1.8395025542        9.6613339705       20.4607575320
  C        -1.7737313976        6.9202914443       21.0055660465
  H         3.9827691626       18.2921487688       -6.2823034029
  H         3.5214761876       17.0526815768       -5.0200116340
  H         4.0564669735       16.7089698734       -6.6097630460
  H        -8.5816944676       12.8812464366       10.3547775175
  H        -7.4983706114       13.9587868002       11.2872567436
  H        -8.8322783465       14.4870336626       10.7791847915
  H         7.2572008227       17.9300956893       13.9145576564
  H         6.9449812353       18.3807762346       15.5790522082
  H         8.5704659672       18.4634489287       14.8049773192
  C        -2.2231874564        8.9687834108       22.0775537417
  N        -2.3003476683        7.5792707766       22.0713410342
  O        -1.6030395923        5.7188287411       20.8581561547
  S        -2.4780012874        9.9547888165       23.5799522961
  C        -2.5548804990        6.8685386040       23.2882507438
  H        -3.0745471176        5.9562491318       22.8990909290
  H        -3.2625721025        7.4438727392       23.8188422873
  C        -1.3256821898        6.6333808108       24.1718806048
  H        -1.3472805209        5.6778144852       24.6355327500
  H        -1.3983390640        7.4082128222       24.9432725918
  H        -0.4017101537        6.7225181431       23.6227810585
