352
i =
  H        -3.1821817605       15.2565637686       16.0208115558
  C        -3.2582750985       14.1806120303       16.0789138391
  H        -4.2529653445       13.8723101750       16.4129342898
  C        -2.3303799398       13.5509196736       17.0332587537
  C        -3.0329503173       13.5407379093       14.6711692724
  C        -2.8477962878       13.7491514098       18.4883649416
  H        -2.3205326643       12.4763398417       16.9070611531
  H        -1.3557414821       14.0257893528       16.9535100553
  H        -3.6862770654       13.8843088287       13.9224749362
  H        -2.0126603833       13.7334488859       14.2388782063
  H        -3.0405232104       12.4309559294       14.6739585993
  C        -1.7765575548       13.4617250879       19.5043118206
  H        -3.6624160962       13.0293957155       18.7291979560
  H        -3.3855973843       14.6946121493       18.5836620047
  C        -2.1666953387       13.7369437320       20.9289823943
  H        -1.5845568052       12.3829094164       19.3193472105
  H        -0.8426414051       13.9570017566       19.1429170258
  C        -1.2853279293       13.1721283421       22.0824556044
  H        -3.1948959752       13.4133987645       21.0908127060
  H        -2.0740144655       14.8727402747       20.9828143087
  C         0.0509133024       13.9691754447       22.3631621905
  H        -1.7978043817       13.1732135361       23.0256680148
  H        -1.0573574279       12.1717190513       21.8389159233
  C         1.2172998311       13.2583604809       23.0620152116
  H         0.4899493915       14.1735371900       21.3945498850
  H        -0.1415967117       14.8836750640       22.8887309796
  C         1.5802162182       11.8954975999       22.3825908583
  C         0.8612230368       12.6564515991       24.3402625686
  C         2.5133128691       14.1546660961       23.0070540667
  C         1.3085591920       10.8059354045       23.1935789513
  C         2.0061407896       11.4112322806       21.1251645630
  C         0.9212841546       11.3057845510       24.4778745257
  C         0.4061623414       13.3238277727       25.4763885914
  H         2.7405192676       14.3924842681       21.9273015552
  H         2.3377447918       15.1258545150       23.4411909259
  C         3.7895620481       13.4962476435       23.5836524242
  S         1.6259361586        9.2621664505       22.5676853880
  C         2.0077358704       10.0607003296       21.0535558075
  H         2.2827440377       12.0578963929       20.3547672023
  C         0.4643357833       10.6732448495       25.5519055017
  H         0.4986016779       14.3963903831       25.3632020381
  C         0.0581230309       12.7044781542       26.6075009422
  H         4.1304768662       12.5605045894       23.1907002060
  H         3.5067031414       13.1856353576       24.6454097102
  C         4.9845704302       14.5239738650       23.7135543549
  C         2.4344559750        9.4048780826       19.7634831243
  C         0.0298951271       11.3757055645       26.7181001852
  H         0.2677650291        9.6698402776       25.5149300907
  C        -0.4097344288       13.1473168748       27.8409842552
  H         5.8292155835       13.9732889228       24.2037495535
  H         4.6311974682       15.3653116362       24.3100265977
  C         5.5206757526       15.1420101565       22.4389741472
  C         2.3067687378        8.0525317590       19.4683723094
  C         2.8324215398       10.1970104800       18.5727545020
  C        -0.4423246704       10.7296778346       28.0463498293
  C        -0.7401260786       12.0414725240       28.6265805099
  S        -0.7428043405       14.6528310265       28.6095543757
  H         6.3629697188       15.8233498904       22.6443921458
  H         4.7848743529       15.6622371305       21.9188376855
  C         6.2234547031       14.0907827157       21.5843012795
  N         1.9604925156        7.1213593759       20.4400012682
  C         2.5102478108        7.4460590517       18.2309923755
  C         3.1268198069        9.6298314411       17.3746326564
  H         2.8465917277       11.2864891416       18.6941438609
  C         0.7290036551       10.0537366435       28.8203869144
  C        -1.7533491745        9.8556778055       27.8867872513
  C        -1.1513170256       12.4209130048       29.9045713560
  C        -1.1870748491       13.7742222379       29.9934052146
  H         7.0883219602       14.5691901880       21.0808378531
  H         6.7409609777       13.3302021740       22.2243531783
  C         5.3947366292       13.3981686484       20.5331952928
  S         1.9120266365        5.6534279425       19.6863057859
  N         2.4263763421        6.1002524812       18.2957559642
  C         2.9048356304        8.1945419034       17.1037447541
  H         3.4078561810       10.3022415042       16.6220377122
  H         1.0275972953        9.2267684514       28.2019872840
  H         0.3567850418        9.5446290497       29.7368462930
  C         1.9848220439       10.7775502107       29.2342367183
  H        -1.4987347799        8.9163228951       27.3420512202
  H        -2.0261154490        9.3936299074       28.8365492943
  C        -3.0289319734       10.5325499768       27.4694401889
  H        -1.4247188077       11.7085875922       30.6140370667
  C        -1.5313138195       14.5109350436       31.2732239511
  H         4.3411048341       13.7442360484       20.5912291177
  H         5.2613726047       12.2756543217       20.6819216204
  C         5.9036358289       13.6181848666       19.1035162078
  C         3.0032293620        7.5642791160       15.8706851092
  H         2.3803744965       11.2839258316       28.3129074050
  H         1.8934346664       11.6614488791       29.8766852827
  C         2.9851366918        9.7295652104       29.6844720211
  H        -2.9821583612       11.0165389441       26.4794578788
  H        -3.2670234943       11.3928486499       28.0998071060
  C        -4.2899082006        9.6249719610       27.5035757212
  C        -1.5139281207       15.9032133013       31.4798743974
  C        -1.5530320698       13.8038576100       32.5971741129
  H         5.2882690575       13.1872270928       18.2992453296
  H         5.8664411357       14.6996341516       18.8069248903
  C         7.3246131143       13.0501236915       18.8195565010
  H         2.7361175601        6.5402918611       15.7900718139
  C         3.3501907178        7.9033557143       14.6296280815
  H         3.1965840452        9.0448776245       28.8047631555
  H         2.5107877127        9.1434364757       30.4754095351
  C         4.2684761287       10.4480789943       30.1244260981
  H        -4.0653467329        8.8536924819       26.7673508499
  H        -4.3296154768        9.0893367426       28.4862614095
  C        -5.6233753367       10.3369129926       27.3001264512
  N        -1.3479478348       16.8445677279       30.4258250432
  C        -1.8409243800       16.5742438264       32.6600938956
  C        -1.8311942950       14.4171763608       33.8125362874
  H        -1.2892968720       12.7293513458       32.5552706603
  H         7.5749483650       12.7837218612       17.7300137619
  H         8.1682781347       13.6981760985       19.0259853993
  H         7.5179233148       12.1686115902       19.3774098632
  S         3.5430955379        9.5357325035       14.1607506599
  C         3.4698507326        6.8348168579       13.5371355849
  H         4.4233968162       11.3326497932       29.5365003700
  H         3.9440130125       10.7033690418       31.1556709122
  C         5.4565115681        9.5078301703       30.0733627450
  H        -5.6384905138       11.2140707003       27.9794794759
  H        -6.4613003474        9.7161857197       27.6017860626
  C        -5.7883453863       10.8402665375       25.8649941477
  S        -1.3170241109       18.3437017862       31.1195291799
  N        -1.8764108380       17.9607796313       32.5166160265
  C        -2.0322870208       15.8520816159       33.8796326310
  H        -1.7896534261       13.7850631436       34.6889533851
  C         3.8545535251        8.8379605131       12.5500462853
  N         3.9411907022        7.4859682080       12.4737286645
  O         3.2743691733        5.6105672705       13.7274723125
  H         6.3326420781       10.1069621374       30.2534062399
  H         5.4518872219        9.2435244283       29.0513162340
  C         5.3983835615        8.2826446103       31.0076832982
  H        -5.1881151815       11.7241830967       25.8474086961
  H        -5.3319207063       10.2042489871       25.0996448218
  C        -7.2679500773       11.1022328546       25.5310748902
  C        -2.3135606221       16.5720635097       35.1073891840
  S         4.4712285765        9.7784077203       11.1687642415
  C         4.2250241495        6.7710526416       11.2330244366
  H         5.5524215414        8.5845981320       32.0167927104
  H         4.4987683960        7.7638703180       31.0278665344
  C         6.3871309545        7.1807838390       30.6440713686
  H        -7.4249909649       11.9935779795       24.9246188648
  H        -7.7890078939       11.2857017871       26.4174466217
  C        -8.0027749142        9.9416636782       24.9277677662
  H        -2.1743060863       17.6539117445       35.1292417687
  C        -2.7483299736       16.2203218787       36.3792112048
  H         4.9556762016        7.2867304377       10.6217422662
  H         4.5840142326        5.7859544430       11.4290489481
  C         2.9181947501        6.5966739122       10.4858021080
  H         7.4566098784        7.5186940234       30.8237832476
  H         6.2136198309        7.0480371662       29.5591487778
  C         6.0542376971        5.8427000632       31.3047912920
  H        -7.7126293295        9.9897710976       23.8256419655
  H        -7.5902661836        9.0002221484       25.3124010558
  C        -9.5093587908       10.0458117507       25.1264857758
  S        -3.2233402174       14.6346982207       36.9938937912
  C        -3.0425148257       17.3101669735       37.3184422975
  H         2.8663421494        5.5155861037       10.5619663245
  H         2.1030854882        7.0542612195       10.9722875488
  H         2.9601674734        6.8041452193        9.4052691943
  H         6.5953663460        5.8454507093       32.3027569048
  H         6.4810800036        5.0539744337       30.7384322416
  H         5.0397725580        5.7816954564       31.4255097703
  H        -9.8999956044       10.9270814514       24.7065210790
  H        -9.8564525617        9.9553306497       26.1641797657
  H       -10.0994374603        9.2766146632       24.6874371523
  C        -3.6192535883       15.5243620691       38.4499054932
  N        -3.5151331297       16.8535227911       38.4621457633
  O        -2.8164877191       18.5245031104       37.1147511289
  S        -4.2234319488       14.8326639426       39.9577403196
  C        -3.7423215621       17.7157786586       39.6080256731
  H        -3.9195147827       18.7818757632       39.3160201490
  H        -4.6624721795       17.3923859715       40.1480360724
  C        -2.4574532695       17.6485796915       40.4453846325
  H        -1.6314908504       17.6678559585       39.7971509845
  H        -2.4173769555       18.4017121002       41.2784928808
  H        -2.4626919039       16.7653974604       40.9867260235
  H         7.1563302617       11.9405435446        3.3538086100
  C         7.8413879050       11.0265752625        3.5137574570
  H         7.0913252978       10.2805839208        3.6314135081
  C         8.7623770806       11.1722258142        4.7524897924
  C         8.6991112409       10.8200952935        2.2420304400
  C         7.9772657376       11.3252550246        6.0588216589
  H         9.3805704108       10.2887936393        4.8471208876
  H         9.4423988806       11.9652116880        4.5520363036
  H         9.4108353911       11.6018614908        2.0574094283
  H         8.0555547689       10.6926739515        1.4160194628
  H         9.2637812436        9.9659927002        2.4438295083
  C         7.3541871345        9.9325400025        6.5191020669
  H         8.5642290755       11.7126803075        6.8486195604
  H         7.1651339531       11.9518064498        5.8225956841
  C         6.5517839761       10.0095955501        7.8961113718
  H         8.1702406163        9.2725301434        6.7158907882
  H         6.7912537611        9.3290168578        5.7888088924
  C         5.2912498292       10.8534309663        7.7799802001
  H         7.1580473803       10.4375818554        8.6577380931
  H         6.3139001335        9.0282391545        8.3644922509
  C         4.1282725254       10.0376444538        7.1258740291
  H         5.0152973416       11.2098768425        8.7508212976
  H         5.4476167256       11.8126810988        7.2945833558
  C         2.8334583114       10.8468460334        7.0113988130
  H         3.8474484859        9.1632250414        7.7534927970
  H         4.3976308884        9.6722234178        6.1460189517
  C         3.0789969491       12.2365211811        6.3973762713
  C         2.3616369766       11.5753726943        8.2496954238
  C         1.6236176432       10.1184157389        6.2701832536
  C         2.8000372283       13.3919080167        7.1634636716
  C         3.5703749348       12.6312186995        5.1280010772
  C         2.3695237682       12.9149429395        8.4005258048
  C         1.8760583745       10.8643898171        9.3441043019
  H         1.9843414185        9.8599494050        5.2769149038
  H         1.4820083075        9.2384160163        6.8286246680
  C         0.3721091681       10.9336342313        6.1356829054
  S         3.0793632993       14.8502354336        6.4004928322
  C         3.6112239329       13.9957036187        4.9705933602
  H         3.6547605123       11.9083058003        4.3413135093
  C         1.9524917525       13.5479796375        9.5809236131
  H         1.8491869544        9.8092514341        9.2619031961
  C         1.4209321803       11.4383152290       10.4938294373
  H         0.6450224377       12.0024450660        5.8558793526
  H         0.0558855677       10.9448743500        7.1237522057
  C        -0.5621099167       10.2453184700        5.1562568392
  C         4.0210104675       14.6861024781        3.6662081493
  C         1.4460732900       12.7974065980       10.6159813295
  H         2.0809499694       14.5806763756        9.8350944990
  C         0.9118513916       10.9937425870       11.7018289797
  H        -1.5928223256       10.6240323470        5.2486431994
  H        -0.7092514894        9.1895411218        5.4726882544
  C        -0.2153653868       10.3437294436        3.6237813826
  C         4.0136279835       16.0907270341        3.4565893434
  C         4.5828496603       13.8279283156        2.5529290206
  C         0.9690333425       13.4465369871       11.8875889383
  C         0.6316963843       12.0678295245       12.5116610385
  S         0.6037729633        9.4231749600       12.3312534322
  H         0.6050280131        9.6666709090        3.5411820274
  H         0.2275405311       11.2277949778        3.2480916192
  C        -1.4121298729        9.8649774877        2.8029972443
  N         3.8438255238       17.0459003875        4.4134410152
  C         4.3107860248       16.6323116578        2.2227782858
  C         4.8994175711       14.4115037002        1.2892979578
  H         4.8662562864       12.8239727727        2.7369036047
  C        -0.2622656672       14.3156865429       11.5954365185
  C         2.0352698469       14.2812385203       12.5333422278
  C         0.1744977286       11.6299281794       13.7294835720
  C         0.0708829043       10.2455724423       13.7724954332
  H        -2.1230436651        9.2265352389        3.3548222831
  H        -2.0619515562       10.6715915463        2.5098928989
  C        -0.9937081150        9.0825226257        1.5157315057
  S         3.6881831568       18.4708394739        3.7543540786
  N         4.2518037629       18.0441354144        2.2288797772
  C         4.6625172604       15.8570582231        1.0670976826
  H         5.0807010743       13.7402911783        0.4898100826
  H         0.0814159450       15.1563756367       10.9268306319
  H        -0.7116497033       14.7142626407       12.5585749020
  C        -1.3403793692       13.5608488813       10.8600179027
  H         2.6101664184       14.9552862752       11.8430979361
  H         1.5211832550       15.0607419393       13.0733807758
  C         3.0386795841       13.3857105992       13.3952369017
  H         0.0625573458       12.2814851811       14.5078083037
  C        -0.1029666768        9.5155522558       15.0633682634
  H        -1.8556944195        8.5770675239        1.0169692365
  H        -0.3242169723        8.3085146644        1.9025505393
  C        -0.1766388240       10.0585773597        0.6406827399
  C         4.8696942466       16.6104713837       -0.1201887113
  H        -0.9581375299       13.1741468787        9.8690230986
  H        -1.9029226172       12.7868400035       11.4664199121
  C        -2.5371839053       14.4982806743       10.5170973792
  H         3.2766269597       12.5990888759       12.6859398225
  H         2.6652902196       12.8794957906       14.3274695878
  C         4.1799198555       14.2863889216       13.7873183161
  C        -0.1632706190        8.0765695016       15.2869617204
  C        -0.1572238338       10.3062178896       16.2958941286
  H        -0.1526211807       11.0185452839        1.1496184333
  H         0.7636526327        9.6208372014        0.5039248411
  C        -0.8840096092       10.0432260223       -0.6979104729
  H         4.5988711483       17.6435766034       -0.0031604936
  C         5.2951102670       16.2568551656       -1.4104159448
  H        -2.2982885225       15.2278612430        9.7178579144
  H        -2.7113027499       15.0099565802       11.5151583320
  C        -3.7623536098       13.6558955850       10.1653759447
  H         4.7785465898       14.7642309125       12.9820245213
  H         3.8118859563       15.0764832103       14.4110912507
  C         5.1776997515       13.5394873933       14.7102498890
  N        -0.1459162301        7.0984137184       14.2544857136
  C        -0.3829743743        7.4562503313       16.5018815726
  C        -0.3324346052        9.7286643535       17.5571668913
  H        -0.2127420043       11.3981112074       16.2808201297
  H        -1.9059671226       10.4140701642       -0.6401200293
  H        -0.8658653103        9.0625303524       -1.1794581004
  H        -0.3868064812       10.7114489287       -1.3926500415
  S         5.7431135016       14.6576091327       -1.9447553277
  C         5.2678416339       17.2722787540       -2.4914751983
  H        -3.4770702277       12.7841741976        9.6038524803
  H        -4.2997499636       13.2653975743       11.0403194888
  C        -4.6612734819       14.3659434544        9.2504825826
  H         5.2867540628       12.5020823786       14.3159485105
  H         4.6452124911       13.3441168803       15.6204928732
  C         6.5068562413       14.2622297909       15.1595803963
  S        -0.0750142405        5.5999924049       14.9268826553
  N        -0.5562444944        6.0634623389       16.4101483030
  C        -0.5564499510        8.2119503421       17.6991557477
  H        -0.3866256643       10.3742720896       18.4152308235
  C         5.9143081071       15.2761317110       -3.5288461894
  N         5.6828153355       16.6230206186       -3.6492918670
  O         5.0959855351       18.4647269070       -2.3357190609
  H        -5.1623263217       15.2111375385        9.7308304809
  H        -4.0000657880       14.8306771827        8.4406522640
  C        -5.7087685760       13.4939194417        8.5354454018
  H         6.2672900287       14.4915623083       16.1640514193
  H         7.3012853099       13.4376057911       15.1988387250
  C         6.9371477243       15.5670953329       14.4398254723
  C        -0.8388235929        7.4562385866       18.9330082173
  S         6.2213986471       14.2709164946       -4.8495987614
  C         5.7897967748       17.3385214465       -4.8994407467
  H        -5.1222486213       13.1235457507        7.6397601128
  H        -5.7766644187       12.5553056336        9.0753989840
  C        -7.0651985956       14.1033921976        8.2864910582
  H         6.0461717455       16.2099159319       14.4336561975
  H         7.2129924216       15.3153260741       13.4936832094
  C         8.0695245152       16.2789079512       15.2318666773
  H        -0.5053214523        6.4058411752       18.9530367998
  C        -1.3185053656        7.8616090828       20.1484267611
  H         6.5690407588       16.9116097072       -5.4603995263
  H         6.1899554516       18.4239962695       -4.7936107834
  C         4.4605224449       17.4349532127       -5.5855407045
  H        -7.5718271083       13.5301577682        7.5277481584
  H        -6.9365896711       15.1280779665        7.9714368348
  C        -7.9542089250       14.1449261775        9.5374368744
  H         7.9676277401       16.0051767950       16.2821834340
  H         9.0490381696       15.9216440083       14.8251062066
  C         7.8922556673       17.8510685929       15.0759415727
  S        -1.7217381895        9.4904310807       20.5308132509
  C        -1.4913074191        6.8509624566       21.1857753934
  H         3.6454803224       17.7049233282       -4.8092135842
  H         4.2835765567       16.4908604749       -6.1000420267
  H         4.4547139576       18.2201295738       -6.4521295121
  H        -8.6193467287       13.3274950330        9.5630055658
  H        -7.4431587445       14.4197301829       10.5013851648
  H        -8.6950748327       14.9536963373        9.4717071098
  H         6.9044525557       18.0550678284       14.8422783561
  H         8.0293958509       18.3079313371       16.0581214575
  H         8.5444018913       18.3084444496       14.3231571791
  C        -2.1026619083        8.7681537758       22.1178583078
  N        -2.0136293400        7.4229397729       22.2770599487
  O        -1.1016534387        5.6895058386       20.9773378258
  S        -2.9373171359        9.7188117385       23.4480212366
  C        -2.1306205639        6.7227766178       23.5568462215
  H        -2.0724429810        5.6945326283       23.4479221731
  H        -2.9102275502        6.9670185777       24.2290034683
  C        -0.8041233279        6.9475299428       24.2586699371
  H        -0.0086578516        6.4116163667       23.6941333546
  H        -0.7816648462        6.5157046753       25.2216841618
  H        -0.4825400553        7.9870057196       24.2962315566
