352
i =
  H        -2.9741794946       14.9647148180       16.2339421058
  C        -3.1260763857       13.8954245047       16.3660037885
  H        -4.1474731283       13.8208018416       16.6535174201
  C        -2.2364842274       13.1946202435       17.4905053824
  C        -2.8610395764       13.2995473157       14.9939961810
  C        -2.5263128890       13.7031729496       18.8815677075
  H        -2.2385473258       12.0864328372       17.5336280072
  H        -1.2382959708       13.4556420806       17.3935590708
  H        -2.8864456497       12.2430745059       15.0405686098
  H        -3.4611176653       13.7801510255       14.2044543513
  H        -1.8016888712       13.3000480952       14.7605820038
  C        -2.3636062235       12.6566894841       19.9792786623
  H        -3.4562989461       14.3417533496       18.9691901738
  H        -1.7330496924       14.3915364350       19.0890015066
  C        -2.3886011324       13.2825125543       21.3534533022
  H        -3.1644863796       11.8923638130       19.8583928327
  H        -1.4486043693       12.1795980234       19.8180677378
  C        -1.3186289524       12.7398713556       22.3163133968
  H        -3.3978161618       13.1148416313       21.8199258773
  H        -2.2477084558       14.3690533901       21.3670379296
  C        -0.1128302356       13.7046028140       22.3992087644
  H        -1.8161852660       12.5594358182       23.2818769645
  H        -1.0630129314       11.7921141237       21.9105470405
  C         1.0173512495       12.9662566205       23.2194341261
  H         0.2248844377       13.9943648114       21.4063806030
  H        -0.4197206116       14.6670344054       22.8511979734
  C         1.3635404197       11.6347945650       22.5849971885
  C         0.6128463394       12.3242894498       24.4618266143
  C         2.2987085556       13.9114512999       23.3015602915
  C         1.2227059538       10.5468429071       23.3886570298
  C         2.0048677378       11.2522968521       21.3983854155
  C         0.7366454898       10.9922209042       24.6226160166
  C         0.1423223695       13.0014981959       25.6317137112
  H         2.5643071668       14.1761787219       22.3024445113
  H         2.2142403134       14.8711089777       23.8657153787
  C         3.5341668118       13.1998363022       23.9673783345
  S         1.7910747525        9.0289564888       22.7121869996
  C         2.1018772062        9.8716061641       21.2559180017
  H         2.3358318799       11.9706098833       20.5963279288
  C         0.3793746402       10.3749007343       25.8415938837
  H         0.2022757187       14.0844880738       25.6524003190
  C        -0.2810888056       12.3705434271       26.8088058103
  H         3.8870176383       12.3948039297       23.4135025649
  H         3.2586175664       12.7925305409       24.9427400767
  C         4.6751542253       14.1781629644       24.3284299482
  C         2.5659514062        9.2538367275       19.9768430369
  C        -0.2389154231       11.0059390170       26.9017046103
  H         0.4552123006        9.3082881806       25.8291492539
  C        -0.7225173091       12.7239426841       28.1440595257
  H         5.3543645354       13.5622485841       24.9659236968
  H         4.1303125009       14.8971089718       24.9258199831
  C         5.3185624654       15.0243236820       23.1549816106
  C         2.4949695512        7.9155377839       19.8023103228
  C         2.8299446667       10.0857516464       18.8034955145
  C        -0.7418556099       10.2566592195       28.1222314196
  C        -1.0518216333       11.5611165222       28.8616437281
  S        -1.0512429590       14.1254467010       29.0083185682
  H         5.9755617501       15.6878203360       23.7230067966
  H         4.6257702644       15.5824964977       22.5227826887
  C         6.1874524042       14.2175396759       22.1975173914
  N         2.3329707655        6.9689410549       20.8025908298
  C         2.7074848152        7.2850861625       18.5620005449
  C         3.1463691394        9.4401206921       17.5778739563
  H         2.8240254497       11.1534233217       18.7477854404
  C         0.3082147912        9.5473214930       28.9581119906
  C        -2.0551299473        9.5092369418       27.8451670506
  C        -1.4406442786       11.8197063149       30.2068017515
  C        -1.5056757589       13.1690763318       30.3858841068
  H         7.0903973810       14.7249382210       21.9135078616
  H         6.4574052923       13.2883877316       22.6454308660
  C         5.3727217529       13.9718430157       20.9179851032
  S         2.1451540204        5.4922795081       20.1537854668
  N         2.5583390205        5.9022611913       18.6351241189
  C         3.0173413576        7.9828902423       17.3589484657
  H         3.3127489270       10.0980539731       16.7873050144
  H         0.7329288775        8.7511480162       28.3707484880
  H        -0.2166905170        8.9720007598       29.7067037906
  C         1.5517861068       10.2867594760       29.4392562493
  H        -1.9183051168        8.8109958654       27.0936612215
  H        -2.1838835922        8.9109127185       28.7927879655
  C        -3.2796566251       10.3143279547       27.5259501661
  H        -1.6746369878       10.9710874280       30.8363297487
  C        -1.8333564489       13.9253111478       31.6230609176
  H         5.1841363276       14.8730956423       20.3748398824
  H         4.3724414391       13.4844835255       21.1305568909
  C         6.1708882072       12.9704071222       20.0733218048
  C         3.1812916865        7.3119056432       16.1171386265
  H         2.1425858466       10.7020924385       28.5572920678
  H         1.3814342384       11.0859923365       30.1686120931
  C         2.3883431571        9.2219185883       30.2063089030
  H        -3.2070453434       10.8368947960       26.5791425364
  H        -3.4878783173       10.9930190772       28.4102834827
  C        -4.5902774892        9.5455771767       27.4002215988
  C        -2.0214196185       15.2985064771       31.8535428910
  C        -1.8436832717       13.0351183257       32.8563318441
  H         6.7808552307       12.3442983848       20.7681447511
  H         5.4643454705       12.2488116042       19.7592966208
  C         7.0243233496       13.4950062165       18.8978417150
  H         3.0731603293        6.2821363585       16.1852127126
  C         3.4450609865        7.7291232502       14.8054615359
  H         2.5554268060        8.3733766148       29.5691036681
  H         1.7657900090        8.8254678759       30.9794141396
  C         3.6498140763        9.8208314856       30.8165018445
  H        -4.4246391874        8.7694197721       26.6422255495
  H        -4.7914861553        8.9807123766       28.3566807073
  C        -5.7248161780       10.4532900684       27.0232883313
  N        -1.8029051510       16.2827625747       30.8904347548
  C        -2.2115086477       15.7911366935       33.1013979440
  C        -2.2116854531       13.6162613873       34.0993458785
  H        -1.5086370488       12.0670113204       32.7680501557
  H         6.6478228203       14.2808023511       18.1916011444
  H         8.0001564854       13.8565607503       19.2989702365
  H         7.2817612392       12.7180518333       18.1269831609
  S         3.8769089541        9.3416560377       14.3197592994
  C         3.4707230812        6.7844992392       13.6797411536
  H         3.9107378343       10.7922085048       30.3306244321
  H         3.4379598699        9.9709594284       31.8953151097
  C         4.8036730938        8.8122886841       30.7669984414
  H        -5.4302637246       11.2369980921       26.3685783959
  H        -6.1693269778       10.8445257093       27.9159787850
  C        -6.6664226659        9.5938067285       26.1634967873
  S        -1.8957282014       17.7510612767       31.6005903156
  N        -2.2533892622       17.2045994502       33.0859744252
  C        -2.4708416603       15.0878622331       34.2711261242
  H        -2.2330716615       13.0324389374       34.9618732046
  C         3.9933093585        8.7135770758       12.6450347847
  N         3.8571988799        7.3427602901       12.5305884117
  O         3.1497109120        5.6473679307       13.9480454846
  H         5.7315725654        9.4450133286       30.8700662670
  H         4.8598378169        8.2254767250       29.8509363368
  C         4.8696411395        7.7484796094       31.8991658846
  H        -6.0358620380        8.9029211385       25.5134635983
  H        -7.1905699807        8.8285337535       26.8466460493
  C        -7.6571073067       10.3624838062       25.1640969858
  C        -2.9021889461       15.8350677535       35.3987053654
  S         4.4996436544        9.6729745270       11.3552849595
  C         3.7666208377        6.5866006602       11.2869769874
  H         4.7940569629        8.3683921651       32.7544299598
  H         3.9708544645        7.1324504678       31.9738552113
  C         6.2513913052        6.9787869910       31.7365238626
  H        -7.2750273240       10.2702662562       24.1067011831
  H        -7.6257135749       11.4408266520       25.3081464054
  C        -8.9347721667        9.6811250700       24.9865570511
  H        -2.5343144152       16.8865403235       35.4049494558
  C        -3.4782567321       15.4329825570       36.5889034481
  H         4.3380213477        7.0081813907       10.4454689284
  H         4.2970814319        5.6704755263       11.6072479342
  C         2.2765352942        6.3321329640       10.9810573503
  H         6.3180851832        6.3330821391       32.6177749566
  H         7.0731481762        7.6167477596       31.7492733305
  C         6.2531076355        6.1459679193       30.3973117955
  H        -9.4180601307       10.0265196968       24.1185654448
  H        -8.7597589059        8.6508284226       24.8213966537
  C        -9.9883019320        9.8038117546       26.1234664165
  S        -4.1490975179       13.9287453135       36.9706462056
  C        -3.5445981275       16.5193727740       37.5990158190
  H         1.7707248772        7.2385586562       10.6367007440
  H         2.3058801875        5.6077542706       10.1479609387
  H         1.6170971694        5.9401868338       11.8130207363
  H         7.0878682441        5.4062747241       30.3517917283
  H         6.2986923541        6.7017314636       29.3948690995
  H         5.3413531652        5.6613133220       30.5405209430
  H       -10.8121586621        9.1242624915       25.9913919769
  H       -10.5045763756       10.7108578265       26.1997711519
  H        -9.6622685434        9.7454777798       27.1808083349
  C        -4.5282080445       14.6643560322       38.5086035935
  N        -4.1297345196       15.9593706339       38.6428539779
  O        -3.0446424862       17.6102566607       37.5590869468
  S        -5.2646516775       13.9038660668       39.9789607110
  C        -4.1180835647       16.7488580967       39.8647396011
  H        -4.2286211671       17.7798568421       39.7513424465
  H        -5.0228071422       16.4678623253       40.4433347495
  C        -2.8694724933       16.6010713371       40.6890222507
  H        -1.9777270722       16.4680972546       40.1794630878
  H        -2.7825891225       17.3635929937       41.4041941102
  H        -2.9411622101       15.6464729101       41.1458575113
  H         7.4211102616       11.3943229919        3.7237192653
  C         8.2317658620       10.6106675237        3.9342562516
  H         7.6432553340        9.6748380036        4.0578987542
  C         8.9040095645       10.9099189567        5.2026256146
  C         9.2086001359       10.3477277289        2.7609109114
  C         7.9191190780       10.9008499669        6.3248233187
  H         9.7636950318       10.2272875611        5.4083150358
  H         9.3476820792       11.8615624209        5.1919823110
  H         8.5787252553       10.4122165652        1.8196924191
  H         9.6852591746        9.3726747234        2.9705599863
  H         9.9278399400       11.1481273461        2.7144106444
  C         7.2951063998        9.5227662579        6.6413037563
  H         8.4284114984       11.4537524401        7.1394378318
  H         7.1281376568       11.5670829248        6.0554527503
  C         6.5313055116        9.5192188385        7.9411804482
  H         8.1625000676        8.7900104748        6.7304425334
  H         6.6894991454        9.1559521112        5.8753209765
  C         5.2200338516       10.3100073452        7.9156190527
  H         7.2498104635        9.8278521490        8.7822671035
  H         6.4229706995        8.4807101186        8.1707513206
  C         4.0989640747        9.5613001790        7.2657315941
  H         4.8200320312       10.6737998608        8.8330990358
  H         5.3810371467       11.2035326095        7.3009976893
  C         2.8486240150       10.4762965550        7.1090028865
  H         3.8629459699        8.7793896697        7.9908677693
  H         4.4983889498        9.0875185126        6.3832658833
  C         3.2351444976       11.8452133713        6.4228453221
  C         2.4217648105       11.1501415216        8.4090446323
  C         1.7422946979        9.6320179882        6.4050218879
  C         3.0656343626       12.9207770736        7.2900010618
  C         3.7946918629       12.2853491968        5.2302849353
  C         2.5179435954       12.5002344764        8.5068157552
  C         1.8595454232       10.5181827229        9.5259562830
  H         2.0496634392        9.2393741449        5.4846077101
  H         1.4717431196        8.8296276322        7.0340982419
  C         0.4438242149       10.3754890807        6.0995843813
  S         3.5280071540       14.4367708501        6.6681260617
  C         3.9545027453       13.6615712548        5.1983800034
  H         3.9335498934       11.5750312309        4.4348050349
  C         2.1595104013       13.1291524286        9.6524555922
  H         1.6936329315        9.4255336755        9.4619038363
  C         1.5426498489       11.1698205722       10.6914171239
  H         0.6300484680       11.3336851204        5.5956352437
  H        -0.1674383458       10.7183828134        6.9487539437
  C        -0.5162958082        9.8136167810        5.0421772308
  C         4.3313869952       14.3816228161        3.9259154232
  C         1.6704655287       12.4677154518       10.8306954182
  H         2.1826995308       14.1675761215        9.6089189293
  C         1.0725282983       10.8075080108       11.9450715831
  H        -1.4304657552       10.3022450579        5.0581059930
  H        -0.6374299552        8.8043091219        5.3096810453
  C         0.0363065993        9.8631222053        3.6057346384
  C         4.2128454738       15.8264260953        3.7081595916
  C         4.8181276172       13.4562029057        2.7723104380
  C         1.3125031532       13.1716196682       12.1143662963
  C         0.9279411339       11.8611422505       12.7990847790
  S         0.6938424035        9.3465654938       12.6163456340
  H         0.9819269231        9.2944634871        3.3845749788
  H         0.3270050485       10.8798684769        3.4016423422
  C        -1.0407480468        9.4841382129        2.5673214422
  N         3.8611560036       16.8686115691        4.6454916451
  C         4.4263847414       16.2894540782        2.4538940789
  C         4.9468589934       14.0352302917        1.5650878072
  H         5.0133277421       12.3629724332        2.8720105653
  C        -0.0258123076       13.9399675860       11.9690976250
  C         2.4238673851       13.9781271528       12.8304765427
  C         0.3612952801       11.4960770099       14.0261974173
  C         0.3354536897       10.1119339391       14.1504266297
  H        -1.1185800479        8.4351734617        2.5176766319
  H        -2.0606396567        9.8315724054        2.7828007625
  C        -0.5532605663        9.9839272353        1.2124887199
  S         3.7047560874       18.2156335580        3.7315519831
  N         4.3049560492       17.6875996000        2.3226892569
  C         4.8077737051       15.5072315246        1.3301741795
  H         5.1853991754       13.4526797054        0.7492205489
  H         0.1398946557       14.9123348980       11.4646607739
  H        -0.2749028125       14.1474867831       13.0013840448
  C        -1.2254783164       13.2282200068       11.1729743544
  H         2.8583565360       14.7409488609       12.1263758391
  H         2.0233372627       14.4415821083       13.7105824459
  C         3.6302961851       13.1668389778       13.2556095778
  H         0.0847769795       12.1809784206       14.8050812209
  C         0.1290142789        9.3744938675       15.4373181512
  H         0.3201672071        9.4127965544        0.9407524089
  H        -0.3106500122       11.0392538476        1.1859991990
  C        -1.4351445993        9.6857963012        0.0819152734
  C         4.9706898552       16.1286287908        0.0933828294
  H        -0.8769762374       13.0829852200       10.1369684622
  H        -1.4544173258       12.2670245153       11.6483573826
  C        -2.4550787755       14.0303713815       11.0526854832
  H         4.0365276700       12.6153703984       12.4145617918
  H         3.3669985320       12.4585500039       14.0493207016
  C         4.6594164940       14.0260355740       13.8572967706
  C         0.0655868001        8.0008180488       15.5525935733
  C        -0.1158025419       10.1360593187       16.6331865499
  H        -1.4783812761        8.6179821462       -0.1361963517
  H        -2.4280214342       10.1162806724        0.2102970651
  C        -0.8443673256       10.1988515347       -1.2323852637
  H         4.8851805018       17.1982679038        0.0073192606
  C         5.2813820648       15.7383056156       -1.1751993858
  H        -2.1428470899       14.8085784269       10.3280552085
  H        -2.7621446063       14.4705517497       11.9910834304
  C        -3.7425973451       13.2637453162       10.6028218029
  H         4.8829454132       14.8597556967       13.1763561572
  H         4.3460913484       14.4849825675       14.7756645004
  C         5.9913523331       13.2271666654       13.9640926958
  N         0.2842698577        7.1159556132       14.5000557459
  C        -0.3177865250        7.3778404029       16.7243926897
  C        -0.5784041760        9.5457948062       17.8324844501
  H         0.0180901997       11.1948326609       16.6651766683
  H         0.1510098894        9.7487546429       -1.2077516262
  H        -0.7453149484       11.3138320480       -1.2592571729
  H        -1.3915651772        9.9229413865       -2.1065028804
  S         5.8351964889       14.2313495831       -1.7042385135
  C         5.2421389389       16.8434374336       -2.2121237056
  H        -3.4103286481       12.3196206377       10.1744630663
  H        -4.4192443829       13.0684034606       11.4817940703
  C        -4.6248223413       14.0563218718        9.6231445470
  H         6.3841039224       12.9586101310       13.0368421799
  H         5.8400500005       12.3785663392       14.5157026109
  C         7.1329414846       14.0649143020       14.6845614289
  S         0.1424855982        5.5825829614       15.0516455701
  N        -0.3170942528        5.9540407452       16.5486788784
  C        -0.5906714787        8.0095088924       17.9440954785
  H        -0.7481772968       10.1492253712       18.7101349063
  C         5.9282715120       14.9707121322       -3.3300991112
  N         5.6766176317       16.3120998288       -3.3828855476
  O         4.8921313043       18.0395053055       -2.0978369525
  H        -5.1462925582       14.8527805497       10.1397253701
  H        -4.0317290859       14.3854868228        8.7078160332
  C        -5.6198317521       13.0043752598        9.0048010835
  H         6.9940373935       13.6615883636       15.6301477245
  H         8.1263590528       13.9055276110       14.2825318650
  C         6.9981490205       15.6170481744       14.6172068009
  C        -0.9486783879        7.2140721483       19.1136487406
  S         6.4815425410       14.2601517880       -4.8215076411
  C         5.6070363192       17.1372609533       -4.5644267688
  H        -5.2489775387       12.7862221831        7.9589436066
  H        -5.6762466074       12.0667518952        9.6528481651
  C        -6.9568255301       13.6712949288        8.7177903587
  H         6.1734426397       16.0446561208       15.2262367374
  H         6.8808790938       15.8913767660       13.5315171234
  C         8.2429136131       16.4079530128       15.0916410469
  H        -0.7277219247        6.1190229079       18.9753665980
  C        -1.3476829211        7.5403882609       20.3822502393
  H         6.3483154722       16.7695532633       -5.2024581249
  H         5.9228677203       18.1869152582       -4.4183635387
  C         4.1987587110       17.1952370400       -5.2435061010
  H        -7.4990808069       13.2044872681        7.9285582612
  H        -6.7802943034       14.7049161649        8.5528514798
  C        -7.8474947382       13.6574052918        9.8993317702
  H         8.1669472922       16.3703325121       16.1942070155
  H         9.1396597095       15.8855894071       14.7448848253
  C         8.2797500245       17.8914900168       14.6011067913
  S        -1.8590514596        9.0837434068       20.8747606059
  C        -1.5101306712        6.4756074645       21.3783534465
  H         3.6507622046       16.2887847717       -5.2066928026
  H         4.2418910967       17.4898931425       -6.2936659043
  H         3.4786573600       17.8639941019       -4.8182009095
  H        -7.3119201452       14.1748808271       10.6787627685
  H        -8.8359187426       14.1367461534        9.7383516729
  H        -7.9254526082       12.6599661925       10.2874686708
  H         8.5078497795       17.9385096335       13.5186741496
  H         7.3388559666       18.2996244147       14.8064183412
  H         9.1121138157       18.4026990113       15.2145494990
  C        -2.2075455924        8.3218629210       22.4498081991
  N        -2.0099078424        7.0110903047       22.4906992698
  O        -1.1385871142        5.3083879309       21.1878633410
  S        -3.0365328944        9.1355329539       23.7322536518
  C        -1.9955152077        6.2300047219       23.6944181512
  H        -2.4343335456        5.2910167677       23.3946950590
  H        -2.6822306907        6.5688655731       24.5153811452
  C        -0.5642248257        6.1460812934       24.3112797800
  H        -0.5840477023        5.4422237160       25.0808685520
  H        -0.2389642090        7.1473528849       24.7815393689
  H         0.1834858228        5.7129107016       23.5494625301
