352
i =
  H        -2.7796240014       14.8055685348       16.1249864653
  C        -2.8504053701       13.7523464376       16.1803150947
  H        -3.8344076397       13.4583692198       16.3665610723
  C        -1.9931418574       13.1523826798       17.2939596989
  C        -2.4637472353       13.1405594913       14.8214488320
  C        -2.5528278569       13.5683451024       18.6266558548
  H        -1.9727206682       12.0236152504       17.2773773032
  H        -0.9423734531       13.4457766859       17.3215883108
  H        -2.8107335740       13.7882845247       13.9999547459
  H        -1.3780036227       13.2477301515       14.7578927584
  H        -2.6567426056       12.1151889669       14.6759656662
  C        -1.7425971344       12.9259647751       19.7330351602
  H        -3.6229224369       13.3530121760       18.7253290216
  H        -2.6370874244       14.6467967401       18.8105260737
  C        -2.2028339387       13.4177692012       21.0832123394
  H        -1.7905156521       11.8488575733       19.7244429371
  H        -0.7326874045       13.1478506021       19.5185771756
  C        -1.2689779103       12.9087055894       22.2314361034
  H        -3.1804754865       13.1811929298       21.3607492487
  H        -2.0991043840       14.5111828111       21.1740266513
  C        -0.0327738350       13.7779137837       22.5379209940
  H        -1.8651853403       12.7577376833       23.0796914349
  H        -0.9991000921       11.9320483923       21.8556285777
  C         1.1882886169       13.1374704448       23.2031386905
  H         0.3730387067       14.1325859965       21.5825641427
  H        -0.3111685604       14.6026381577       23.2366550213
  C         1.5440150674       11.8188957377       22.5432188537
  C         0.7713297984       12.3790419862       24.4785972974
  C         2.4222645720       14.0237146252       23.3658056421
  C         1.3152684456       10.7004168151       23.3105955272
  C         1.9081168772       11.4384998959       21.3010535491
  C         0.7684293716       11.0207212195       24.4886360326
  C         0.2751143958       12.9435267944       25.6464777540
  H         2.6763199751       14.4944297034       22.4264022937
  H         2.2453246666       14.7961585912       24.1267125632
  C         3.6640315365       13.2564326655       23.7922250726
  S         1.6949337931        9.1933708880       22.5791451016
  C         2.0269807493       10.0987691085       21.0979720790
  H         1.9792550503       12.2017364455       20.5355811325
  C         0.2578200628       10.3027730571       25.5471375627
  H         0.3746504849       14.0330279430       25.7385576126
  C        -0.1613157073       12.2291965354       26.7036493593
  H         3.8547892395       12.4013791868       23.1174459337
  H         3.5323082023       12.9397635595       24.7962176740
  C         4.8530934723       14.1948291740       23.8866887647
  C         2.5163530762        9.4059893216       19.8344466757
  C        -0.1981222942       10.8828905149       26.7202888598
  H         0.1821188147        9.2137632349       25.4479013517
  C        -0.5116534960       12.5097276702       28.0137414893
  H         5.5948125460       13.7738766335       24.5092651998
  H         4.6485993328       15.0964202705       24.5127759082
  C         5.4859364595       14.5520908878       22.5614663991
  C         2.4567222819        8.0985063509       19.5854168173
  C         3.0277857277       10.1477380441       18.6529682408
  C        -0.6260157161       10.0752174830       27.8995992488
  C        -0.8539407284       11.3411760183       28.7408617245
  S        -0.7994501846       13.9189107244       28.8545663648
  H         6.3204829970       15.1386239016       22.8771957919
  H         4.7918426330       15.2184105215       21.9970469182
  C         6.0202689169       13.3182591129       21.7923929370
  N         2.0919384724        7.1765007050       20.5497448436
  C         2.7686016038        7.5212106680       18.3777151804
  C         3.3540755364        9.6061215771       17.4298295190
  H         3.1304228043       11.2074178379       18.8262638932
  C         0.5878100249        9.2894495365       28.5671540032
  C        -1.9153993103        9.2322551648       27.7836926587
  C        -1.2437149568       11.6417194054       30.0365160956
  C        -1.2802391443       12.9893543215       30.2287909384
  H         7.1230293369       13.4864107011       21.7097973840
  H         5.8969829245       12.5513471154       22.4730070084
  C         5.4217317149       13.0429814818       20.4436809668
  S         2.3451736321        5.6884078384       19.9851886942
  N         2.7466594020        6.0974403028       18.4982993273
  C         3.2417291104        8.1589538998       17.2168090474
  H         3.7619047217       10.3352129533       16.7728766044
  H         0.9631357789        8.5697967776       27.9030643153
  H         0.1717605745        8.7892062587       29.4388189232
  C         1.7998028702       10.0583985760       29.1247472054
  H        -1.8202097015        8.4863483278       27.0161499673
  H        -1.9820246112        8.6507408935       28.6475300546
  C        -3.1510592923       10.1468032144       27.5138084222
  H        -1.6219221313       10.9191107059       30.7149904444
  C        -1.5903138945       13.7099044094       31.5211835442
  H         4.3415762788       13.0995700151       20.6037749137
  H         5.6216182046       11.9901529529       20.1909640523
  C         5.7822331631       13.8717392535       19.2187375943
  C         3.4184434782        7.3697114900       16.0036932640
  H         2.2756173746       10.5221216305       28.2638535330
  H         1.6842211777       10.8970736875       29.8067913170
  C         2.8808590930        9.2071487538       29.6455300607
  H        -2.8896465063       10.8997637047       26.7429344618
  H        -3.3191429121       10.8269310571       28.3941881164
  C        -4.4625659570        9.3611380241       27.2702992191
  C        -1.7509198242       15.1293519118       31.7420101465
  C        -1.7845604086       12.8591082869       32.7520674705
  H         4.9304406432       13.6300161011       18.6493980612
  H         5.8796574528       14.9177765960       19.4055493653
  C         7.0155094510       13.2994770033       18.4486291992
  H         3.4661023420        6.3132239010       16.1459853388
  C         3.7469948047        7.7612999845       14.7566869177
  H         3.1741490776        8.4240219094       28.9232110582
  H         2.5375561850        8.7707456882       30.5933925918
  C         4.1109810516        9.9930916117       29.9593516810
  H        -4.2452169782        8.4826458208       26.6462709411
  H        -4.7819368282        8.8937506982       28.1724912904
  C        -5.4721052763       10.2585727880       26.5442276069
  N        -1.7375771540       16.1036471612       30.7456042965
  C        -2.1492988392       15.6554803820       32.9716045106
  C        -2.1043146177       13.4337602785       33.9921954131
  H        -1.6654847734       11.7539882575       32.7255353491
  H         6.5916604192       12.6995738301       17.6391771914
  H         7.6012583474       14.1123397528       18.0622030894
  H         7.6609092162       12.6621031478       19.0071016865
  S         4.0736139671        9.3797436701       14.2761197206
  C         3.7939375287        6.7627500437       13.6513869511
  H         4.0408828573       10.9015566483       29.2771090094
  H         4.0819234698       10.4241159099       30.9469082186
  C         5.3955455335        9.2696349791       29.5895591070
  H        -4.9343412918       10.8773581137       25.8190554803
  H        -5.9035101666       11.0258377666       27.2555509431
  C        -6.5911497427        9.4254130656       25.8688990053
  S        -2.1773981211       17.5122819846       31.4396219426
  N        -2.3196552043       17.0606216498       32.9655542834
  C        -2.3400262405       14.8587935778       34.1342031457
  H        -2.2288334315       12.7594951424       34.8899076903
  C         4.2556196800        8.7294478660       12.6789362197
  N         4.1596222542        7.3772280975       12.5227322886
  O         3.6110408670        5.5803884524       13.8577520894
  H         6.2070593476        9.9259413923       29.6662888419
  H         5.3714265228        9.0890755983       28.5568766179
  C         5.6938337714        8.0489696587       30.4977371239
  H        -6.2365133156        8.6952476485       25.2312695193
  H        -7.0805920621        8.7988992849       26.6004090204
  C        -7.6478494855       10.2828301221       25.1482094790
  C        -2.5967842791       15.4732243173       35.3892467761
  S         4.4836252933        9.5826804301       11.2460154649
  C         4.1539070598        6.5888222648       11.2701698061
  H         6.2413883702        8.5053138501       31.3782146579
  H         4.7718704053        7.5863796035       30.8886892562
  C         6.6191579445        7.0482378963       29.8890931640
  H        -7.2034676200       10.4790726331       24.1531905325
  H        -7.7909975616       11.1442090002       25.6750116929
  C        -9.0528970669        9.6061704482       25.1027474811
  H        -2.3686355608       16.5442536039       35.3742739652
  C        -3.1950418536       15.0280866057       36.5552154943
  H         4.9327309768        7.0421412271       10.6478930610
  H         4.4210523986        5.5460011265       11.4206033920
  C         2.7415121864        6.7189781833       10.6366064221
  H         7.3670566380        7.5089470437       29.3080750861
  H         5.9979735468        6.6251154690       29.0853192724
  C         7.0851775803        6.0239102261       30.9163260844
  H        -9.6342780210       10.1343144758       24.4218513079
  H        -8.9118072009        8.5764897460       24.8518710171
  C        -9.6931563053        9.7320678273       26.5193093295
  S        -3.6728879526       13.4458918548       37.0246667832
  C        -3.3586361902       16.0498952287       37.6222320863
  H         2.6031989548        6.4097738178        9.6159405097
  H         1.9036629316        6.3171578185       11.2327601198
  H         2.4053451561        7.7543524104       10.4224527478
  H         7.8225405779        6.3608478698       31.6581333566
  H         7.5182050858        5.3037062064       30.2381646497
  H         6.2862038196        5.5234509668       31.4063942989
  H        -8.9629930996        9.3178955059       27.1815232032
  H       -10.6219423496        9.1881799613       26.4949838920
  H        -9.8713995892       10.8049756871       26.7211959806
  C        -4.1146822801       14.0665907932       38.6172169763
  N        -3.8158513354       15.3818145250       38.7324831429
  O        -3.0655327225       17.2761869618       37.5836978110
  S        -4.5374612239       13.2191408108       40.0795015693
  C        -3.8998354402       16.1369825776       39.9288736843
  H        -4.0384721449       17.1772033970       39.7457271583
  H        -4.5656809659       15.7782066950       40.6467785492
  C        -2.5580224970       16.0868937772       40.7044101520
  H        -1.7003753091       16.2132944067       40.0285518879
  H        -2.5306253021       16.9346105585       41.3248491596
  H        -2.4284664418       15.1841460861       41.3247740754
  H         7.0178977633       11.7772138041        2.9624998722
  C         7.4281100665       10.8269756101        2.9918441214
  H         6.6113264003       10.1048259872        3.0199882677
  C         8.4408287826       10.6840085556        4.1965154799
  C         7.9847726936       10.5730514967        1.5388842371
  C         8.0479270233       10.8505104805        5.6115462158
  H         8.8260136308        9.6777910872        4.1483289710
  H         9.2362587058       11.4000698714        3.9525889602
  H         7.1281260407       10.2157473050        0.9095099318
  H         8.6872286504        9.7463451123        1.4440952236
  H         8.4597601186       11.4059927000        1.0677752500
  C         7.1141510373        9.7002257885        6.0127140033
  H         8.9894107575       10.7867777550        6.2448258015
  H         7.5607199317       11.7403391107        5.8190608547
  C         6.5102955080        9.7656783583        7.4261844242
  H         7.7134448479        8.7949979340        6.0006363889
  H         6.4153889868        9.5251735796        5.1879543692
  C         5.1635535486       10.5494520378        7.4666931520
  H         7.2670013448       10.2269441418        8.0877270336
  H         6.4550722474        8.7712950553        7.7866738653
  C         3.9044971243        9.7778882017        6.9776719480
  H         4.8627785976       10.7947412853        8.4946968996
  H         5.2992297254       11.4610152677        6.8866627979
  C         2.5766470630       10.6294867101        6.7987656722
  H         3.6350810558        8.9709358188        7.6671576661
  H         4.1634828244        9.2839263923        6.0447142678
  C         2.8844489818       11.9915801989        6.0907951966
  C         2.2367494675       11.2780973281        8.0885704705
  C         1.4008039159        9.8964121449        6.1420077662
  C         2.7897009951       13.0369883243        6.9539190014
  C         3.4122021316       12.3994878430        4.8557571418
  C         2.2953988654       12.6095314761        8.1746159600
  C         1.7848874966       10.6698642763        9.2229513289
  H         1.9364121096        9.4446055564        5.3122108493
  H         1.1128907027        9.1450523481        6.8299310872
  C         0.2220276044       10.8082847421        5.6344005491
  S         3.1408508738       14.5920709277        6.2865499500
  C         3.5708060789       13.7440959588        4.8042886885
  H         3.6474588253       11.6282330203        4.1765190009
  C         1.9408155041       13.2056388446        9.3517389130
  H         1.7336508375        9.5961401662        9.2096498634
  C         1.3377570920       11.2676752906       10.3705599273
  H         0.6977640575       11.4712714954        4.9935418637
  H        -0.0942897737       11.3456858699        6.5831598930
  C        -0.8621260719       10.0416882642        4.8826901747
  C         4.2000067549       14.4305376225        3.5868844455
  C         1.4098437881       12.5958366395       10.5114207214
  H         2.0487868472       14.2771454064        9.3713645214
  C         0.9934819592       10.8793314509       11.6550153451
  H        -1.8037605559       10.5817448991        4.8346552036
  H        -1.2165053576        9.1220137413        5.3597339532
  C        -0.4055855939        9.7394485563        3.4856023305
  C         4.0743649442       15.8175351082        3.3377270454
  C         4.7138181687       13.5470659088        2.4742450816
  C         1.0922455443       13.3219245921       11.7602305132
  C         0.8231318444       11.9535110552       12.4653275848
  S         0.8716290937        9.3628945841       12.4997424487
  H         0.1034263688        8.8201387356        3.4317323630
  H         0.3188397652       10.4847200441        3.1150369053
  C        -1.5787898765        9.5741454433        2.4760818117
  N         3.4311804189       16.7534557851        4.1535354815
  C         4.3704601866       16.3271942383        2.0925213374
  C         4.8051271425       14.0650858888        1.1862046495
  H         4.8209414384       12.5066848282        2.6565348036
  C        -0.3056883342       14.1497547215       11.6069246052
  C         2.2306714222       14.2318997975       12.3198690677
  C         0.5770043511       11.5409051481       13.8433792403
  C         0.4873597092       10.1560325592       14.0008112594
  H        -2.2650848734        8.8690075448        2.9116448111
  H        -2.0999554294       10.5137785239        2.3471274987
  C        -1.3221633767        8.9073712016        1.1088856967
  S         3.6228213705       18.1975443014        3.4678907209
  N         4.1487955242       17.7068068916        1.9797984949
  C         4.7099310257       15.5472211194        0.9103671800
  H         4.9922083484       13.4557190010        0.3697613309
  H        -0.0863958885       14.6781322877       10.6722518967
  H        -0.5028135504       14.8515653770       12.3844405464
  C        -1.4408340755       13.2674199924       11.2740291282
  H         2.5719476399       14.8771633075       11.4715487419
  H         1.7935715807       14.8910271722       13.1137467060
  C         3.4064537120       13.4569502012       13.0278142726
  H         0.5002084977       12.2755858781       14.6071219773
  C         0.3275727382        9.3990188920       15.3002754834
  H        -2.2368312471        8.7647814603        0.6211988633
  H        -0.9647276073        7.8232267236        1.1852542781
  C        -0.3089774847        9.6307598233        0.2156937569
  C         4.7356398486       16.1869510177       -0.3814027738
  H        -1.1184629481       12.4139852716       10.7779717299
  H        -1.7671772478       12.7308214003       12.1261903172
  C        -2.5807911542       13.9422148864       10.5437329048
  H         3.8226833108       12.6996418791       12.3917318760
  H         3.0409216805       12.9036350648       13.8916654051
  C         4.5673710927       14.3472068560       13.6251720167
  C         0.2574637272        8.0024446367       15.3981775139
  C         0.0651961749       10.1645693825       16.5710820569
  H        -0.4636779286       10.6957843784        0.3994014047
  H         0.7571815922        9.3082052780        0.4352645982
  C        -0.5770835101        9.3537621076       -1.2615834156
  H         4.5868707209       17.2618372999       -0.2691031035
  C         5.1316255844       15.8186159566       -1.6312991050
  H        -2.0995147957       14.0914609444        9.5549653742
  H        -2.8068039118       14.9007750224       10.9489624417
  C        -3.8610269401       13.1116128399       10.3724753513
  H         4.9454907064       14.8127029318       12.7921402825
  H         4.0461114629       15.0029977507       14.3026888832
  C         5.5438420513       13.4487120064       14.2871001833
  N         0.5819536843        7.1134895624       14.3916142540
  C        -0.1527582908        7.3572442663       16.5055893568
  C        -0.2249938821        9.5602990868       17.7586280151
  H         0.2624094260       11.2255348324       16.5736406307
  H        -1.4238825005        8.7301956440       -1.2896920008
  H         0.2017660414        8.7925869353       -1.8761656769
  H        -0.8220297097       10.2127582656       -1.8081535839
  S         5.5316042125       14.2264833337       -2.1095313614
  C         5.0635667899       16.8693132252       -2.6801913437
  H        -3.5827827264       12.1145573864        9.9341909730
  H        -4.3243600960       12.9915779050       11.3825154146
  C        -4.8453012907       13.9203181772        9.5095386469
  H         5.6444181491       12.4965947959       13.7126063318
  H         5.0598924726       13.1238970981       15.2402100396
  C         6.9540610636       13.9314729128       14.5012107459
  S         0.3542706928        5.5981439422       14.9311608420
  N        -0.1851786737        6.0084357090       16.3542801509
  C        -0.3757843238        8.0204544860       17.6998986553
  H        -0.3761182484       10.1470928465       18.6888259037
  C         5.7474161270       15.0152509277       -3.6942240580
  N         5.5516557966       16.3236580859       -3.7722845181
  O         4.9374230459       18.1037311836       -2.4863336390
  H        -5.4381652407       14.7691276521       10.0824831170
  H        -4.2694591488       14.3559557183        8.7027993893
  C        -5.9069247061       13.0020172088        8.9297779084
  H         7.5445122079       13.2841046661       15.1865024185
  H         7.4782091920       13.8406569005       13.5539056692
  C         7.0022261860       15.4641244647       15.0276714098
  C        -0.7049358517        7.1710270700       18.8136969482
  S         5.9981359455       14.1649001491       -5.1918554896
  C         5.6303947268       17.0820530095       -4.9877657278
  H        -5.7972890191       12.9966123440        7.8394537255
  H        -5.8807356812       11.9908117332        9.4313614724
  C        -7.3058763954       13.6341341234        9.0200930647
  H         7.5156178843       15.4102891765       16.0160753060
  H         5.9978079430       15.8061451853       15.1523418777
  C         7.5761913416       16.3950562346       13.9704853974
  H        -0.6091987967        6.1196800850       18.6336344858
  C        -1.1616465467        7.4726301472       20.0671893459
  H         6.4981539225       16.7635141756       -5.4816949058
  H         5.7071694379       18.1441503006       -4.8119460725
  C         4.3634414188       16.7556765572       -5.8155483536
  H        -7.9753146510       13.5629575022        8.1455302181
  H        -7.2196283802       14.7320844367        9.0842488683
  C        -8.0396840865       13.2161081674       10.3395681537
  H         8.5931585843       16.0592018266       13.7677377572
  H         7.0028661727       16.2000358056       13.0029416090
  C         7.4207851694       17.8848843065       14.3327017493
  S        -1.6921797550        9.0241709334       20.6857346192
  C        -1.3216635465        6.3517843006       20.9867731074
  H         3.6215325030       17.5646586908       -5.7358067313
  H         3.8948346294       15.8533805431       -5.5210846608
  H         4.4646284783       16.6929317367       -6.8626010824
  H        -7.7345571214       12.2658484261       10.7424136716
  H        -7.8914534001       14.0539988256       11.0826491472
  H        -9.0546648532       13.0729315893       10.2066024682
  H         8.2661274977       18.4731928721       13.8921346166
  H         6.4877384603       18.3176845853       13.8895915582
  H         7.4091219754       17.9879339968       15.4732810312
  C        -1.8916287191        8.2412101753       22.2350210230
  N        -1.6828087199        6.8736221642       22.2020644059
  O        -0.9816830892        5.1789443087       20.7795543053
  S        -2.4925270685        8.9487716898       23.7808106772
  C        -1.7690452075        6.0884550496       23.4060421080
  H        -2.1917446161        5.1223214425       23.0883050914
  H        -2.3723673185        6.4096049985       24.2235587980
  C        -0.4366766082        5.8266464460       24.0777870327
  H         0.2536831643        5.4519472772       23.3060113473
  H        -0.5990494713        5.0407892988       24.8669623771
  H        -0.0646135763        6.7774490298       24.5035178306
