352
i =
  H        -3.6542393352       14.3642820476       16.8228378287
  C        -3.2302630229       13.4552261607       16.6685263756
  H        -3.9544605983       12.6402421798       16.7695183373
  C        -2.0010892887       13.1787325700       17.5600540985
  C        -2.7641677593       13.5308186335       15.2104852884
  C        -2.3476128401       13.3774632205       18.9901429815
  H        -1.7109190277       12.1542179444       17.5233391983
  H        -1.1460439110       13.8418501603       17.3915710275
  H        -2.9395676494       12.5266044938       14.7477138861
  H        -3.3152425401       14.2389126491       14.7003792346
  H        -1.6775232190       13.8456953969       15.1057954931
  C        -1.3649651134       12.9563181788       20.0267737713
  H        -3.3056556185       12.9058152750       19.1752656819
  H        -2.5562826725       14.3826953173       19.2272229722
  C        -1.9833767797       13.1315876958       21.4761048805
  H        -1.0169696496       11.9544577653       19.8223490622
  H        -0.4999870546       13.5354812486       19.9410297828
  C        -1.0411502732       12.5830816930       22.5565177306
  H        -2.9495717748       12.6789030789       21.6482707548
  H        -2.1148928334       14.2547418380       21.5376120290
  C         0.1138253674       13.4587324454       22.8951578818
  H        -1.7385022082       12.4925828653       23.3933947474
  H        -0.8070937243       11.5613618818       22.3437947882
  C         1.2867826811       12.7131562077       23.4585376424
  H         0.4645488083       14.0752532262       22.0121068356
  H        -0.3115008897       14.1945237572       23.5435853277
  C         1.5595804771       11.3909280280       22.7376112012
  C         0.8582914842       12.0318972935       24.7017246506
  C         2.5156282278       13.6399068301       23.6054965129
  C         1.3331589682       10.2581560126       23.5372376032
  C         1.9609694501       10.9193306141       21.4969586125
  C         0.8166273784       10.6272574977       24.7624669623
  C         0.4195048359       12.6343088338       25.8793290169
  H         2.6693317925       14.3191089569       22.7804952637
  H         2.2713959826       14.2508902048       24.4392041271
  C         3.7701035354       12.9090739559       24.1078913162
  S         1.5786013081        8.7258387686       22.8153484629
  C         2.0303518410        9.5560902443       21.3817368778
  H         2.1435874703       11.6450707718       20.7152366524
  C         0.3420657447       10.0091259966       25.8751804368
  H         0.3710745914       13.7301720507       25.9480014710
  C        -0.0031187774       11.9926341637       26.9513661859
  H         3.9915017933       11.9891562094       23.5592841451
  H         3.4891618388       12.7016384862       25.1565674116
  C         5.0026048127       13.8378382053       24.2183708266
  C         2.4727723564        8.8167152460       20.1678358052
  C        -0.1159864069       10.6437575092       27.0645298111
  H         0.1550415975        8.8788348000       25.8264963876
  C        -0.6066859950       12.5001045737       28.1441291536
  H         5.6746336280       13.4976012668       24.9859855606
  H         4.6333225920       14.8696281668       24.4546435202
  C         5.7024673677       14.0003288274       22.8278260975
  C         2.4539756008        7.4421106608       19.9047549253
  C         3.0924333985        9.6239306880       19.1347947538
  C        -0.5921255660       10.0557389965       28.4089111706
  C        -0.9009440647       11.4286383316       29.0327457636
  S        -0.7825411048       14.0702522456       28.7825336414
  H         6.4910621044       14.6904270874       23.0271710704
  H         4.9976449147       14.4174404097       22.1998955286
  C         6.3445466034       12.7768347541       22.2747174138
  N         2.0271876403        6.4474036430       20.8412752624
  C         2.7669474486        6.9643508998       18.6670039665
  C         3.4629686867        9.1503273356       17.8726018480
  H         3.1132164313       10.6579188848       19.2223091154
  C         0.4713877059        9.2458898198       29.1548187224
  C        -1.9069911952        9.2541835589       28.1916772320
  C        -1.2853125517       11.9596372399       30.2832158740
  C        -1.3053100864       13.3540922452       30.3372768667
  H         7.3576932710       12.9915662319       22.0768447834
  H         6.3220590893       11.9256179278       22.9946962782
  C         5.6681280077       12.2745095185       20.9549076451
  S         2.1966381514        5.0289086964       20.1174308909
  N         2.6194753991        5.5998684444       18.5877411363
  C         3.3495710561        7.6942147705       17.6201449355
  H         3.6810468359        9.8954993138       17.1859586625
  H         0.9549562307        8.6650577663       28.3330095513
  H         0.1146041799        8.5561042986       29.9199491841
  C         1.6991826750       10.0863166493       29.6549520698
  H        -1.7323447976        8.4762325707       27.4628569733
  H        -2.1134782462        8.6129217630       29.0700192282
  C        -3.1646270447       10.0394133303       27.5888104612
  H        -1.3307742069       11.3165929982       31.1377561825
  C        -1.6784797376       14.2353454828       31.4882326271
  H         4.7720543057       11.7875000031       21.2309086657
  H         6.3357604821       11.5405969190       20.5583735184
  C         5.5446861100       13.1356997508       19.7359811980
  C         3.5931461068        7.0667662943       16.3700316944
  H         2.0944955865       10.7283513043       28.9052725787
  H         1.1468028492       10.6664411168       30.4564469477
  C         2.8034034452        9.2390773255       30.1635985720
  H        -2.8632885235       10.3125039115       26.5886254587
  H        -3.3235690635       10.9215234709       28.1793337049
  C        -4.3397658148        9.1870681275       27.5176611301
  C        -1.6842198662       15.6385084854       31.5553759697
  C        -2.0776277545       13.5581281764       32.7520471457
  H         4.9858463302       12.6425093338       18.9080661964
  H         4.9418117598       14.0430992188       19.9550861924
  C         6.9427583618       13.4697809198       19.1274205625
  H         3.4507490503        6.0216148081       16.3402181835
  C         3.7587129945        7.4601773128       15.0719941979
  H         3.1026934798        8.6795223032       29.2851325262
  H         2.4162681515        8.4387445331       30.7709769699
  C         3.8970632142       10.0255044691       30.7832406185
  H        -4.1423759187        8.4152208495       26.7476562463
  H        -4.4419407582        8.7537977744       28.4805120743
  C        -5.5850747961       10.1107327988       27.2390352650
  N        -1.3008846333       16.4938333903       30.4785361612
  C        -2.0302839628       16.3326891551       32.7510991490
  C        -2.4857610334       14.2935942494       33.8525273024
  H        -2.1780586474       12.4592319980       32.7427716745
  H         6.7041439178       13.9845909577       18.2022910242
  H         7.5660335643       14.0579763287       19.8006750625
  H         7.5454071587       12.5715814274       18.8307526943
  S         3.9797502574        9.1387676609       14.4915474367
  C         3.8208567723        6.4733075541       13.9441270930
  H         3.8758133477       11.0506817906       30.3167102654
  H         3.6066305753       10.4187528043       31.8082853652
  C         5.3092941360        9.4098427217       30.7598899597
  H        -5.2968975170       11.1413189805       26.9247961764
  H        -6.0839030687       10.2617732717       28.2475525078
  C        -6.5706734577        9.5098619031       26.2458402176
  S        -1.2622996979       18.0183146787       31.0612188643
  N        -1.8867346636       17.7101126815       32.6155392190
  C        -2.3960177034       15.7526543479       33.9338873089
  H        -2.9000847624       13.7278412345       34.7205219112
  C         4.1361666239        8.4517148778       12.9126758649
  N         4.1872812984        7.1141520416       12.8096716106
  O         3.7068319870        5.2766154514       14.0820669450
  H         5.9057955785       10.1932550831       31.2496983378
  H         5.7572061449        9.3383738999       29.8059246225
  C         5.4454747114        8.1235444492       31.5421213180
  H        -6.1555998281        9.2736834301       25.2826839917
  H        -7.0591463778        8.6083145846       26.7464386266
  C        -7.7207022447       10.5368107157       25.8780382661
  C        -2.6327366303       16.6326791842       35.0699063920
  S         4.5915760330        9.4330574233       11.5608352090
  C         4.4859471416        6.3756833577       11.5305566896
  H         6.3042396870        8.1654702195       32.2023231877
  H         4.5334172847        8.0395467278       32.0780773040
  C         5.5935208451        6.9251421384       30.6667458465
  H        -7.1576179691       11.1928771814       25.2047863612
  H        -8.0694068869       10.9978549035       26.8005364738
  C        -8.8361288168        9.8182248300       25.0660353625
  H        -2.4534634627       17.7221317211       34.9148115389
  C        -3.0743617187       16.4576888740       36.3254180487
  H         5.1930912901        6.9105883127       10.9629639359
  H         4.7981614705        5.3141972024       11.6480451261
  C         3.1936580778        6.4548619960       10.7000201813
  H         4.8782706765        7.0416250372       29.8113407916
  H         5.3795826323        6.0068535747       31.1643396454
  C         7.0555529605        6.7494223480       30.1927807578
  H        -8.7883381249       10.2130213045       24.0603542603
  H        -8.5543400215        8.7788204728       24.9699042034
  C       -10.2216868486        9.8743643255       25.7963959727
  S        -3.7411617764       15.0052387990       36.9323087269
  C        -3.1136495514       17.5877577964       37.3213936829
  H         3.1077565719        5.4023446125       10.5049790453
  H         2.3437801090        6.7412706271       11.2219562207
  H         3.1925110753        7.0135599709        9.7679720113
  H         7.6685782737        7.6827583754       30.4265228287
  H         7.1432540075        6.6182931966       29.0786071227
  H         7.3770540823        5.9084979532       30.6805197736
  H       -10.5539163146       10.8369036883       25.9824515454
  H       -10.3565143301        9.2929687235       26.6407189409
  H       -10.9376668032        9.3567723127       25.1485915520
  C        -4.0076611303       15.8406914878       38.4628629055
  N        -3.7204113843       17.2124085939       38.5017346075
  O        -2.7204347771       18.7011017539       37.0627239055
  S        -4.3234008888       15.0814472346       40.0313254444
  C        -3.8638767320       18.0383487869       39.7056999338
  H        -4.2573263107       18.9388636753       39.2897242249
  H        -4.6194035318       17.7512734137       40.4413439250
  C        -2.5278622429       18.0982758220       40.3931885656
  H        -2.2345174310       17.0356548287       40.6464941733
  H        -1.7815071932       18.5303236239       39.7694049275
  H        -2.6915586156       18.5679116377       41.3267871679
  H         7.4701995630       11.5578414198        3.4204991093
  C         7.9637508235       10.5950678003        3.4208650264
  H         7.1096668965        9.8595929190        3.3204581213
  C         8.7392115348       10.4762369689        4.7102575737
  C         8.8576880384       10.4063404428        2.1344766934
  C         7.7795882747       10.5790390653        5.9024400218
  H         9.3722032859        9.5438448370        4.6820192965
  H         9.4645389229       11.2461021336        4.7938504533
  H         9.8491538145       10.8685472497        2.1200959522
  H         8.2788969149       10.9173094516        1.3329282371
  H         8.8034982636        9.2736122621        1.9545808919
  C         7.4384564225        9.1572382209        6.4540395803
  H         8.3437477437       11.1264311186        6.6418119110
  H         6.9014481968       11.2100044881        5.7282551023
  C         6.7032690436        9.2115985693        7.7551164437
  H         8.3410910420        8.6277709633        6.5816948623
  H         6.8515413031        8.6867353641        5.7058607446
  C         5.4269547035       10.0959670786        7.8561357041
  H         7.5133707553        9.6852517146        8.3313530465
  H         6.6026635303        8.1906389496        8.1482380544
  C         4.1614391684        9.4642294752        7.1873192986
  H         5.1603165889       10.2564260488        8.8851279819
  H         5.6611824504       11.0423348233        7.3829039368
  C         2.9703261434       10.3133329605        7.0764865623
  H         3.9849149920        8.5006118870        7.6966817592
  H         4.3801057576        9.1796831572        6.1880349390
  C         3.2856376050       11.6470957592        6.3796386825
  C         2.5540001455       11.0199209057        8.3561312293
  C         1.7993001388        9.5477496860        6.4383836047
  C         2.9201750216       12.7393423933        7.1354710215
  C         3.7204951124       12.0377239088        5.1259646192
  C         2.4674049279       12.4244528148        8.3948674955
  C         2.0694382154       10.4663144715        9.5492401863
  H         2.1739391917        9.0227437587        5.5753457265
  H         1.5571338193        8.7617881894        7.1676392096
  C         0.5627081182       10.4533816858        6.1222118828
  S         3.4088810980       14.2184153967        6.3901894719
  C         3.8411060926       13.3869639052        4.9827439429
  H         3.8594028031       11.3107538070        4.4054849312
  C         2.0980465831       13.0452722357        9.5461081608
  H         2.1219579446        9.4029278168        9.5768029733
  C         1.6422917824       11.1185930323       10.6112364203
  H         0.8667840152       11.4539736700        5.8478550561
  H         0.0968183589       10.6972109774        7.0299785542
  C        -0.3942946085        9.8071172632        5.1582784121
  C         4.3021077906       14.0411232189        3.6931843399
  C         1.6280971952       12.4826234304       10.7372787623
  H         2.0822270192       14.1002226016        9.4128495563
  C         1.1666216769       10.7568823977       11.8466874057
  H        -1.2632636313       10.4653400092        5.1136523161
  H        -0.7589976563        8.8486654288        5.5896788605
  C         0.2639864031        9.6526904999        3.7506233310
  C         4.4308615199       15.4387011773        3.5085667557
  C         4.6699666109       13.2243475650        2.5027602825
  C         1.1912488321       13.2018649057       12.0066568618
  C         0.9323325040       11.8346845264       12.7107141535
  S         0.9772476808        9.2832458632       12.5803430493
  H         0.5935172632        8.6505532507        3.5269177644
  H         1.0585654985       10.4197831739        3.5928163698
  C        -0.8956622316        9.7515415974        2.7101901041
  N         4.1583012930       16.3852548307        4.4434824706
  C         4.7761773470       16.0800218488        2.3571521374
  C         5.0893988007       13.8997013011        1.3424330621
  H         4.6798631435       12.1668025854        2.4694237279
  C        -0.0507254445       14.0351899990       11.7021591542
  C         2.3561720147       13.9949617535       12.5312181248
  C         0.5366445557       11.4088671282       13.9624380582
  C         0.5366114727       10.0422766123       14.0758974044
  H        -1.6175020458        8.9010486090        2.8203890772
  H        -1.4525501226       10.6190559522        3.1464541957
  C        -0.5018165807        9.9910468660        1.2299792880
  S         4.1726888162       17.8921469458        3.8275912358
  N         4.6575226131       17.4802570880        2.3656244795
  C         5.1667585635       15.4284569565        1.2054431895
  H         5.5046776758       13.2649296884        0.5925274029
  H         0.2709954339       14.8872162667       11.0549809816
  H        -0.4392608536       14.3850899757       12.6684253144
  C        -1.1348542861       13.2616086304       10.9270425938
  H         2.7948165025       14.8061719904       11.9030999240
  H         2.0532517209       14.4945929343       13.4338330330
  C         3.5211387497       13.0727804369       12.9840500288
  H         0.2442608105       12.0893280161       14.7098510869
  C         0.4032968476        9.2792606248       15.3457980453
  H         0.3322090785        9.2863709001        1.0474821358
  H        -0.0343323715       10.9286716643        1.1126742033
  C        -1.6438171395        9.7453994266        0.1699746281
  C         5.3097062740       16.1834038722        0.0475325268
  H        -0.8061481278       13.2093605439        9.8748245355
  H        -1.3019775804       12.2669051492       11.3369410471
  C        -2.4745229011       14.0137830962       10.9402553496
  H         3.9783287168       12.4504544852       12.2304453079
  H         3.1023970655       12.3725203734       13.7151641505
  C         4.5898484128       13.8557800340       13.8333468289
  C         0.2931154252        7.9005543195       15.5504753186
  C         0.2691733913       10.0619212820       16.6171962618
  H        -1.8925602743        8.7330428038        0.3068519201
  H        -2.5468236843       10.3009306871        0.4737115230
  C        -1.2253220612       10.1560007340       -1.2042711436
  H         5.3168560873       17.2632141038        0.1202380208
  C         5.4905081300       15.8245713722       -1.2363954794
  H        -2.3411001644       15.0862691345       10.7422166478
  H        -2.9836203699       14.0119203209       11.9276567782
  C        -3.2751075717       13.3695859540        9.8683945124
  H         4.9516847248       14.7159731073       13.2439194073
  H         4.1982619400       14.1877802435       14.7623116822
  C         5.7591760411       12.9697291083       14.2105994100
  N         0.4057678452        6.9932504680       14.4735330718
  C         0.0412245393        7.2644529117       16.7311907610
  C        -0.0690646595        9.4037788870       17.8459103973
  H         0.2910108524       11.1040082482       16.6736459663
  H        -1.3579820426        9.3758324649       -1.9179078727
  H        -0.1906951913       10.4792279671       -1.1624606486
  H        -1.6948933000       11.0517835581       -1.6583034595
  S         5.7500806134       14.2411322250       -1.8136099897
  C         5.6534585724       16.8673213570       -2.2250605443
  H        -3.1484542945       13.8125644445        8.8943533743
  H        -3.0398676089       12.2701488465        9.7689598807
  C        -4.7908048662       13.4880479395       10.1316189275
  H         6.4971922304       12.8333503268       13.3766151391
  H         5.4277652551       11.9880510678       14.5679457498
  C         6.6284889276       13.6311802051       15.2261368017
  S         0.5218360152        5.5481773185       15.1136605465
  N         0.1108731434        5.8943571825       16.6261573245
  C        -0.2890191032        7.9542267583       17.8907615954
  H        -0.2987432659       10.0043769867       18.6730567496
  C         6.0584848169       14.9947548278       -3.4531222199
  N         5.9677433227       16.3612004845       -3.4342533058
  O         5.5320652822       18.0770417163       -1.9397752508
  H        -5.1901867677       12.9236790291       11.0146814368
  H        -5.1115777886       14.5474709701       10.1593274777
  C        -5.4634782571       12.7942992070        8.9470285495
  H         6.0113642986       13.8092075164       16.1313762504
  H         7.4218991087       12.9465979119       15.4858782977
  C         7.3648632210       14.8408116169       14.6707954413
  C        -0.6704857093        7.3353553288       19.1152780411
  S         6.6052084701       14.1225714785       -4.9491297385
  C         5.9995388415       17.1527409917       -4.6487942032
  H        -4.6855275611       12.7729916889        8.2042034625
  H        -5.7541233452       11.7719647532        9.2860209687
  C        -6.6656049266       13.6332851490        8.4748619872
  H         6.9715269799       15.3342902239       13.6994805017
  H         8.3819642426       14.4864618465       14.4410416468
  C         7.4357046510       15.9481732993       15.6441674969
  H        -0.5983419454        6.2819168456       19.1156144710
  C        -1.3261863970        7.7729637140       20.2568385427
  H         6.5065813420       16.6653822165       -5.3866133753
  H         6.5464383456       18.0678614599       -4.4603561673
  C         4.6491442278       17.4129734347       -5.2200448055
  H        -7.1583131749       13.1521814916        7.6437181833
  H        -6.2979377526       14.6446645441        8.1996052242
  C        -7.5985513690       13.7720366380        9.6459512919
  H         6.4075092989       16.2777667083       15.7729625088
  H         7.9041036097       15.6285562166       16.6061271520
  C         8.2659487114       17.1175239216       15.0944117585
  S        -1.7403802458        9.3799340021       20.7463171882
  C        -1.6355495887        6.7441703832       21.2108557292
  H         4.6484019786       18.3721552199       -5.8153427579
  H         3.8239338674       17.3482396678       -4.5023036060
  H         4.4479829662       16.5981385670       -5.9578073947
  H        -8.5558103453       13.8885984330        9.2358442049
  H        -7.6511101564       12.9357642728       10.3565420391
  H        -7.5561733044       14.7416526791       10.1476527808
  H         8.0626934472       17.3448209192       14.0313379770
  H         8.1330959553       18.1343459402       15.6025884656
  H         9.3454491018       16.9700977473       15.3316800348
  C        -2.2049784652        8.6193163337       22.2884207194
  N        -2.1294483388        7.2805179102       22.3153582315
  O        -1.4872394103        5.5104115103       21.0036623560
  S        -2.8500444378        9.5268986924       23.6548085491
  C        -2.6610651243        6.5416825243       23.4435110418
  H        -3.0532942986        5.6104043573       23.0163042900
  H        -3.4696838049        6.9810875847       23.9392125335
  C        -1.4648088930        6.3083897688       24.3865057253
  H        -1.4749748125        6.7683231473       25.3435657639
  H        -0.5615426564        6.7518250761       24.0267480611
  H        -1.3153410898        5.2585649701       24.5461292419
