352
i =
  H        -3.9691886793       14.5241633547       16.2932851179
  C        -3.3664975761       13.5349032968       16.2227852687
  H        -4.0158265285       12.7803353131       16.4853321844
  C        -2.3152043211       13.3706706766       17.2863810824
  C        -2.8878641399       13.5586737647       14.7167275591
  C        -2.9079474696       13.1791122481       18.7324709410
  H        -1.7244586162       12.4512662847       17.0459894178
  H        -1.6823721690       14.2506499710       17.2824671572
  H        -1.8872648986       13.9366002624       14.6370260448
  H        -2.8357574113       12.4873196992       14.3064204730
  H        -3.5799244032       13.9576784084       13.9569441796
  C        -1.7399833015       13.0691321387       19.8047652010
  H        -3.6705024728       12.3639102163       18.8176995708
  H        -3.4250550972       14.1309582320       18.8933969628
  C        -2.1938062276       13.2452450609       21.2804003741
  H        -1.2635347992       12.0606269515       19.7077304233
  H        -0.9595023031       13.8067936525       19.5089105183
  C        -1.2652003239       12.8611522312       22.3996480780
  H        -3.1916385692       12.7391889003       21.4234850175
  H        -2.4298234897       14.2840706008       21.5125992416
  C         0.0413235035       13.5985340437       22.6740602153
  H        -1.8186542939       12.9403697978       23.3195503728
  H        -0.9886059088       11.7867299780       22.2460849053
  C         1.1582219052       12.8810229453       23.3700979881
  H         0.5120260056       14.0732506794       21.7960354890
  H        -0.2754800710       14.3970631448       23.3254989180
  C         1.4424324123       11.5402795615       22.6241185614
  C         0.8097320523       12.1075224564       24.5718340699
  C         2.4556712634       13.6895177924       23.5963759104
  C         1.2446552855       10.4291897631       23.4043464242
  C         1.9416428986       11.1965109765       21.3528112975
  C         0.8652943914       10.7627411821       24.6583880815
  C         0.3618414674       12.6790862246       25.7880732628
  H         2.7529060161       14.0865172842       22.6522677309
  H         2.2650001366       14.5146521792       24.1990210742
  C         3.5687971350       12.8849301430       24.3304961649
  S         1.6582763672        8.9585242587       22.7380087933
  C         2.0917974003        9.8428584819       21.2624896748
  H         2.3250705785       12.0140190640       20.7361182460
  C         0.4454597271       10.1311405766       25.7632951014
  H         0.3400263386       13.7492738896       25.7498038543
  C        -0.0894493993       12.0525791166       26.9036906982
  H         3.9137052492       11.9721265253       23.7558648087
  H         3.1521865198       12.6350992919       25.3285231663
  C         4.8296126462       13.7734067431       24.5180320048
  C         2.6033212116        9.1172046557       20.0096285507
  C         0.0261559171       10.7142002586       27.0167800406
  H         0.5621530450        9.0481189597       25.7561740665
  C        -0.5663000160       12.4449468581       28.1714848838
  H         5.6582445663       13.3031244617       25.0587309198
  H         4.5980285444       14.5399121244       25.2634441000
  C         5.2999836793       14.5622190037       23.2862723065
  C         2.5036641816        7.7055578610       19.7521241865
  C         2.9836811961        9.9306982740       18.8531563471
  C        -0.3365773451        9.9175150713       28.2707825481
  C        -0.7112102828       11.3373966628       28.9544349139
  S        -0.9025839658       13.9210786249       28.9125927837
  H         6.0127067291       15.2343551200       23.6242199301
  H         4.4646813751       15.1228242229       22.7915849975
  C         5.8851436046       13.6318907479       22.2278709776
  N         2.0382633982        6.7563503193       20.6473311255
  C         2.8544525872        7.1131807032       18.5588631192
  C         3.3333147250        9.3503046849       17.6666406454
  H         3.1338339179       10.9616201331       19.0041348545
  C         0.7682486923        9.1155986303       29.0482644312
  C        -1.5536871913        9.0329880609       28.0011351330
  C        -1.1553469406       11.7305089107       30.2332546847
  C        -1.2453229482       13.1163423547       30.3253716513
  H         6.9310642900       13.9889262516       22.0404525129
  H         5.9130762418       12.5668786475       22.4943412049
  C         5.1797551760       13.8011158229       20.8418019083
  S         2.1244958842        5.2890333351       19.9897806520
  N         2.7755993710        5.6913179058       18.5923052445
  C         3.2878271786        7.8321047348       17.4604120528
  H         3.5896000073       10.0543008928       16.8354873700
  H         1.3314372072        8.7083884605       28.2165618260
  H         0.2289175362        8.3243621036       29.6277170862
  C         1.6822721530        9.9843100683       29.9547103540
  H        -1.2872525172        8.2919712137       27.2756199689
  H        -1.8939299477        8.4293913991       28.8543527382
  C        -2.7063884542        9.8547661789       27.4640168925
  H        -1.4806093865       11.0217828024       30.9621659863
  C        -1.5497329232       13.9638656581       31.5752577641
  H         5.1962500855       14.8687880025       20.6660053618
  H         4.1944761564       13.4069350591       20.8537889457
  C         5.8045350705       12.9373421415       19.6824897528
  C         3.4676318451        7.1378336215       16.1925936413
  H         2.4421295260       10.4496590197       29.2677667346
  H         1.2515224978       10.8741721281       30.4256042219
  C         2.4064133393        9.1071706002       31.0627816901
  H        -2.5334391604       10.5705570474       26.6778874753
  H        -3.0777204901       10.4508361239       28.2855731377
  C        -3.8157504555        8.9016599839       26.9958108739
  C        -1.5891661387       15.3888653778       31.6019151025
  C        -1.7913651083       13.3049861003       32.8384323745
  H         6.1651218716       12.0533324130       20.1640139557
  H         5.0743374752       12.5718005478       18.9537435475
  C         6.8119734175       13.6416978865       18.8248311889
  H         3.3756309858        6.0222266683       16.2231168956
  C         3.8171666669        7.5652538010       14.9364095602
  H         2.7574373788        8.1520527026       30.6489577097
  H         1.7282701375        8.7852723799       31.8905440216
  C         3.5718610941        9.7429109523       31.7770571485
  H        -3.4902893283        8.2628446400       26.1323480897
  H        -3.9202944128        8.1566225948       27.7942692213
  C        -5.1904825106        9.5342919620       26.9013990090
  N        -1.3188829618       16.2643062911       30.5496656255
  C        -1.8195615848       16.1344650431       32.7834015822
  C        -1.8973327056       13.9879626029       33.9748239166
  H        -1.7586188293       12.2310172851       32.8351504510
  H         6.3997605578       14.4271689497       18.2437520884
  H         7.5244205458       14.0830664810       19.4929793060
  H         7.2044216819       12.9007454909       18.1634897770
  S         4.1123598056        9.1632821551       14.3772962284
  C         3.8287187225        6.5281613331       13.8491831332
  H         3.7883370679       10.7637780129       31.6207755111
  H         3.3533348086        9.5298734587       32.8420241900
  C         4.8585452584        9.0681178265       31.3728094043
  H        -5.0713694431       10.5198909862       27.3414372920
  H        -5.9420292698        8.9337826643       27.5655757808
  C        -5.7116153498        9.6978705163       25.5038015077
  S        -1.4771416726       17.7840968769       31.0996990604
  N        -1.8596153789       17.5260039618       32.6374263684
  C        -1.9810408685       15.4443008424       34.0109711501
  H        -2.0842833372       13.3898953426       34.8701630927
  C         4.1935575056        8.4841781391       12.7621390048
  N         4.1608063524        7.1362247098       12.6749260657
  O         3.6791716055        5.2834861238       13.9990652683
  H         5.6431753152        9.7354684443       31.7453156678
  H         4.8838878389        8.9528759323       30.2689778941
  C         4.9700208521        7.7747169502       32.1165505695
  H        -4.9863379653       10.1446796715       24.7614540782
  H        -5.8887984538        8.7666353852       25.0910889042
  C        -6.9024702024       10.6170759515       25.4711677056
  C        -2.0898103521       16.2275640841       35.2017245311
  S         4.7692176386        9.3419411197       11.3055790693
  C         4.2988880375        6.4710227740       11.4044549691
  H         5.6243519759        7.9238514609       32.9359994708
  H         4.0114453034        7.4994245290       32.5519066263
  C         5.6010936150        6.6036426339       31.2421318932
  H        -6.6122007047       11.5416038568       24.9570460131
  H        -7.1585866074       11.0699824033       26.4136993796
  C        -8.1202280860        9.9727444426       24.9717651352
  H        -1.8898448133       17.2943925251       35.0845843832
  C        -2.6710079276       15.9292989846       36.3683027539
  H         5.1948115121        6.7852369815       10.8591278119
  H         4.4360708695        5.4061090343       11.6775334332
  C         3.1066623675        6.6631448477       10.4845842391
  H         4.9201280494        6.2623379088       30.4791611997
  H         5.7111837375        5.7561420373       31.9672496211
  C         6.8789963046        6.9725187673       30.5412723194
  H        -8.4678213943       10.5498090148       24.1058320420
  H        -7.8902985898        8.9292677254       24.6355862629
  C        -9.1710672466        9.7935385726       26.0792416216
  S        -3.1965641930       14.3566820116       36.8529989461
  C        -2.7639802199       16.9991509012       37.3855853455
  H         2.5434499360        5.7748869439       10.1479279599
  H         2.3845452665        7.2774719084       11.0316523695
  H         3.4594486620        7.2892046299        9.6019823190
  H         6.7797284505        7.9742143551       29.9608252680
  H         7.0951376234        6.2360412676       29.8103103059
  H         7.6091616226        7.1093186726       31.2569682887
  H        -9.3860188026       10.7182889498       26.6168297648
  H        -9.0320694736        8.9882889995       26.7994428562
  H       -10.1751067404        9.6477310065       25.6434871632
  C        -3.7062991243       15.1649143239       38.2915439769
  N        -3.4942178531       16.5325007766       38.3716829866
  O        -2.4447330206       18.2005121275       37.2131761931
  S        -4.4906174724       14.4271176534       39.7197464990
  C        -3.8794139679       17.3578134783       39.5186982541
  H        -4.1527776911       18.3731571320       39.2747965901
  H        -4.7021009740       16.9892970615       40.1556886547
  C        -2.7338894019       17.4318484102       40.5797143298
  H        -2.9610043855       18.2973383232       41.1880635350
  H        -2.9224445920       16.5888638947       41.2496428221
  H        -1.6785325875       17.5531618080       40.2142844242
  H         7.0813888551       11.6855796817        3.3433240648
  C         7.6748516703       10.7832749724        3.3972874574
  H         6.8950575181        9.9186870240        3.4591024008
  C         8.5617089030       10.7147735852        4.6696429849
  C         8.4090660023       10.7386533071        2.0837915370
  C         7.8937617154       10.8637460814        6.0365437240
  H         9.0830816301        9.7630135643        4.5885163731
  H         9.3325854383       11.4403188450        4.5261077356
  H         9.4479222227       10.7707725530        2.1698124352
  H         8.0974923274       11.5601924693        1.4274815284
  H         8.2191988995        9.8182590559        1.6178326774
  C         7.5018554908        9.5572653226        6.6242468066
  H         8.4883985506       11.4876504479        6.7603961078
  H         6.9746635399       11.3789653890        5.8224091085
  C         6.7749248162        9.6956089922        7.8895877367
  H         8.3890961713        8.8850612985        6.8852883184
  H         7.0050240420        9.1329744198        5.8181840210
  C         5.4210574707       10.3415066934        7.9684888745
  H         7.4028229195       10.3308350637        8.4879388447
  H         6.8006635112        8.7171046462        8.4365324531
  C         4.3049688589        9.6194318521        7.2500623969
  H         5.0800913440       10.6144904635        8.9631566225
  H         5.6270598451       11.3205091616        7.4934556443
  C         2.9277242238       10.3907491336        7.1838743497
  H         4.0952645139        8.6922338424        7.7384151320
  H         4.6128305990        9.3346935297        6.2335630173
  C         3.3097678549       11.7039744761        6.5161965842
  C         2.4760352526       11.0540557883        8.4071592844
  C         1.8208815423        9.5626798078        6.4188516604
  C         3.1340160749       12.7843654100        7.3664075399
  C         3.6500066580       12.0654069640        5.2616890002
  C         2.5813399525       12.3719975104        8.5822610858
  C         2.0174235790       10.4389133750        9.5835954342
  H         2.4087458086        9.0418580877        5.5764493947
  H         1.4438019153        8.7729896728        7.0663905432
  C         0.6013091318       10.4867142313        6.1363743094
  S         3.5358860635       14.2827604273        6.6076818690
  C         3.8301800521       13.4074156029        5.1550473942
  H         3.7419242436       11.3310139012        4.4515921722
  C         2.1761587060       12.8893545662        9.7542144691
  H         1.9576430684        9.3814374268        9.6087334287
  C         1.6400660270       11.0018867079       10.7646333367
  H         1.0631546651       11.4619754854        5.8907838773
  H        -0.0109692903       10.5394033285        7.1138967972
  C        -0.2890854542        9.9168826416        5.0137172880
  C         4.3698449152       14.1396680848        3.9664463546
  C         1.6541783720       12.3225192107       10.8750598962
  H         2.2700359829       13.9887471570        9.7924553060
  C         1.2539008734       10.5841023641       12.0249444332
  H        -1.1019920814       10.6630252123        4.9237131331
  H        -0.6946076842        8.9471068388        5.2870991914
  C         0.5606869200        9.9004041813        3.6647020411
  C         4.2458815446       15.5731829604        3.6783863937
  C         4.9472478579       13.3386695362        2.8020070882
  C         1.3705404751       13.0299857451       12.1817431252
  C         0.9601391366       11.6715795275       12.8029695853
  S         0.8875901450        9.0933749401       12.7773664036
  H         1.0124488785        8.9219494769        3.5528715406
  H         1.2581176907       10.6669613184        3.6543719812
  C        -0.2837236672       10.0268063814        2.4914675494
  N         3.9637496737       16.5233803569        4.7172124379
  C         4.6315491830       16.1778059662        2.4687528483
  C         5.2436255210       13.9950934454        1.5641315655
  H         4.9562331785       12.2491201174        2.8868796576
  C         0.1057422348       13.9143256809       12.1732382778
  C         2.7160903054       13.6127939503       12.6314216479
  C         0.5600025943       11.3277112848       14.1181839195
  C         0.3760435252        9.9578965269       14.2173535891
  H        -1.2105346109        9.5498730853        2.7198325297
  H        -0.4683780169       11.0673655387        2.2485505034
  C         0.3083339174        9.1299204225        1.3185797498
  S         4.0730771777       18.0555626327        4.0647435986
  N         4.6193154296       17.5925545694        2.5474417157
  C         4.9769274033       15.4814841914        1.2729019394
  H         5.6007833236       13.4223457635        0.6795722398
  H         0.5678304003       14.8596325609       11.8604999742
  H        -0.2989744659       14.1767823236       13.1341675749
  C        -1.1253741417       13.4167704862       11.2858510216
  H         3.5177617138       12.9254729805       12.5220878860
  H         2.9956462425       14.4470159382       11.9750512838
  C         2.7558556623       14.1348621810       14.0857585937
  H         0.4469013048       12.0518761118       14.9161363979
  C         0.0930322051        9.2477254015       15.4799948513
  H         0.5649477627        8.0892428067        1.5883787798
  H         1.1214987195        9.6619599653        0.7703096303
  C        -0.8011087895        9.0581243835        0.2663277285
  C         5.2761303782       16.2205449859        0.0550628572
  H        -0.7972666579       13.1724396562       10.2342299205
  H        -1.4764906758       12.4852986571       11.7340748233
  C        -2.3377475547       14.2976912543       11.2111950316
  H         2.3718147399       13.3753710096       14.7558175304
  H         2.0550969869       14.9497587138       14.1205820420
  C         4.0513676319       14.7215237049       14.6052523948
  C         0.0522813456        7.8464624221       15.6861099403
  C        -0.0910098297       10.0304861416       16.7284048003
  H        -1.4719009969        8.2440750210        0.6489888959
  H        -1.3183975026        9.9832908668        0.2294550928
  C        -0.3038669805        8.8879006491       -1.1822133417
  H         4.8744900145       17.2404893196        0.1233724577
  C         5.5618010149       15.8556263750       -1.2497026628
  H        -2.2397151091       15.1244370539       10.5541761999
  H        -2.6068566429       14.6823295387       12.2028015037
  C        -3.5257686774       13.4722379978       10.7832104322
  H         4.4747380586       15.0920624653       13.6771244449
  H         3.7871950963       15.5765068861       15.2266261901
  C         5.0577925066       13.7057752823       15.3235059072
  N         0.1473602301        6.8752357929       14.6305421717
  C        -0.1119970296        7.2329436145       16.8791087919
  C        -0.3127398619        9.3470883007       17.9225305267
  H         0.1671048527       11.0396625972       16.8524120060
  H        -1.1981011616        9.0374352324       -1.7731780253
  H         0.1940117119        7.9561896424       -1.4248544542
  H         0.3026814509        9.7633845328       -1.5049427167
  S         5.9679204026       14.3320184392       -1.7940066882
  C         5.5897778026       16.9664018019       -2.2429773281
  H        -3.1777657113       12.4549954432       10.5873101367
  H        -4.3240052607       13.3482926584       11.5870595700
  C        -4.2761970698       14.1354919904        9.6369098780
  H         4.9535057098       12.5998321875       15.0522113267
  H         4.8136891459       13.8691399544       16.4415191298
  C         6.4844586711       14.1220453772       14.9782282387
  S         0.3908834903        5.4586342930       15.2380916527
  N         0.1014282292        5.8265868392       16.8357059823
  C        -0.5010433044        7.9354029295       17.9747332181
  H        -0.3152526009       10.0155155718       18.7939204094
  C         6.0967223268       15.0835438072       -3.3831285176
  N         5.9197519057       16.4077071662       -3.4460035754
  O         5.2525989926       18.1257182638       -2.0889825849
  H        -4.8532741534       14.9774033927        9.9562924353
  H        -3.5496982542       14.5086178141        8.8955487835
  C        -5.3243901323       13.1798327091        8.9677145049
  H         7.2943458952       13.3829771266       15.1694751262
  H         6.4648699837       14.1818741602       13.8692592468
  C         6.9139593341       15.4630450519       15.5288011823
  C        -0.7680984174        7.1796756344       19.2079412127
  S         6.4770077075       14.3241412901       -4.9018374389
  C         5.7880258792       17.1551176410       -4.6578087759
  H        -5.1095771587       13.1780938571        7.9135791058
  H        -5.1686861118       12.1788330374        9.3541261782
  C        -6.7130621106       13.8033801465        8.9924386580
  H         7.3970505411       15.3736295288       16.5392347603
  H         6.0885448747       16.1058351787       15.8239325288
  C         7.8570856173       16.2514677239       14.5928425437
  H        -0.4409425029        6.1411110036       19.2234093708
  C        -1.1299256165        7.6197684256       20.4740093213
  H         6.5609090520       16.8178876536       -5.3479960701
  H         5.8472948625       18.2138132149       -4.5223271678
  C         4.3801761597       17.0514465308       -5.2757603905
  H        -7.2705658880       13.3544341579        8.2018241742
  H        -6.5539922124       14.8714361090        8.8764825480
  C        -7.4142242067       13.5139400653       10.3087971170
  H         8.4889523325       16.9219272650       15.1543021450
  H         8.6057688530       15.4889031434       14.2602692131
  C         7.2129972734       17.0261867187       13.4332776534
  S        -1.5859374397        9.2249245300       21.0011957038
  C        -1.1602277656        6.6036698666       21.5634654048
  H         3.6816669963       17.5231655964       -4.7012819462
  H         4.1202676438       16.0206718914       -5.4114256489
  H         4.3798178268       17.4601890861       -6.3181363916
  H        -8.3969137346       13.7140438319       10.1090610463
  H        -7.4259289454       12.4086876167       10.5600139449
  H        -7.1204339389       14.1228593241       11.1247176944
  H         6.9584712071       18.0934221325       13.5611084768
  H         7.8621374956       16.9914308487       12.5478370612
  H         6.2661958867       16.4931038884       13.2121237516
  C        -1.9266188733        8.4747534234       22.5264477081
  N        -1.7540087517        7.0956177925       22.6229222588
  O        -0.8063466582        5.4207166985       21.4862716083
  S        -2.7148069521        9.3531642760       23.8007704360
  C        -1.8424634869        6.3385315454       23.8972350196
  H        -2.1124337312        5.3132637619       23.6731023381
  H        -2.6141151226        6.6500993207       24.6007783745
  C        -0.5547897403        6.2874399095       24.6903643794
  H        -0.7046865791        6.8558769549       25.6309832981
  H         0.2926092281        6.5827235690       24.1692205262
  H        -0.3726708414        5.2616541079       24.9686376556
