352
i =
  H        -3.3129164633       15.0220747606       16.2358265502
  C        -3.1059373431       13.9882375481       16.1779614640
  H        -4.0698623608       13.5011357540       16.4200417039
  C        -2.1450276239       13.6534976902       17.2705669621
  C        -2.5619313142       13.5327233028       14.8172429079
  C        -2.5322799818       14.0872082879       18.6747247999
  H        -2.0530451250       12.5663760836       17.1694697858
  H        -1.1211657792       14.0952336746       17.0931540896
  H        -1.8815336401       12.6854526488       15.0090710273
  H        -3.3092245228       13.3168796504       14.0851018463
  H        -1.9214848536       14.2940084452       14.4414914716
  C        -2.7759273754       12.9763750601       19.7478742058
  H        -3.3729021861       14.7684977473       18.6722948558
  H        -1.6509627216       14.7330338085       18.9452427577
  C        -2.4970420094       13.3257078314       21.2759042908
  H        -3.7895199729       12.6554554401       19.5649360974
  H        -2.1404632072       12.0723135739       19.4627382767
  C        -1.2803284215       12.6371864936       21.9196265628
  H        -3.3580798886       12.9248908199       21.8364204249
  H        -2.5013710050       14.4463092884       21.4527453593
  C        -0.1353339714       13.6946380192       22.2611601610
  H        -1.6945304475       12.1332852181       22.8248288251
  H        -0.9154772023       11.8131908923       21.3753209191
  C         1.1151648433       13.1350376550       22.9374513485
  H         0.2158370016       14.0912326463       21.3407941196
  H        -0.6530021849       14.4636561296       22.8554063183
  C         1.5412287963       11.8234980551       22.2565582508
  C         0.8207206745       12.4752311925       24.2157773089
  C         2.3225505478       14.1903553563       22.9502173909
  C         1.4576409178       10.7310913499       23.0913403202
  C         1.9056478369       11.3686734102       20.9928505886
  C         1.0804244058       11.1696484450       24.3885264719
  C         0.3867301196       13.0597587337       25.4198135720
  H         2.5268014495       14.3725247295       21.9221378532
  H         1.9768766163       15.0800085618       23.4579043009
  C         3.6348096797       13.5802526032       23.5798231163
  S         1.7775650852        9.2298475310       22.3894817777
  C         2.2736630265       10.0245204229       20.9870491282
  H         2.1529837676       12.0741425285       20.1720180481
  C         0.8526198693       10.5420626695       25.5865200152
  H         0.2209841244       14.1268501974       25.5426483714
  C         0.1804738540       12.5040641189       26.5857611424
  H         4.0711271805       12.8828836834       22.7932136978
  H         3.3812302532       13.1215111457       24.5234466739
  C         4.7593004302       14.5610899813       23.9012098099
  C         2.7574384907        9.2362989511       19.8014825740
  C         0.3417291833       11.1916096164       26.6885294019
  H         0.9983311194        9.4742774791       25.6268742186
  C        -0.2254488187       12.9420952527       27.8325908286
  H         5.3370677434       14.2449952859       24.7650053375
  H         4.3206505842       15.4710254551       24.3376464852
  C         5.6687715560       14.9435390557       22.7931335682
  C         2.6771391130        7.7834438999       19.5946316942
  C         3.1184274574        9.9971309810       18.5984508025
  C        -0.0988030938       10.5022828346       27.9534411032
  C        -0.3417722290       11.8702816786       28.6582215414
  S        -0.6019958014       14.4763656207       28.5126885273
  H         6.4467734425       15.6142079734       23.1328702494
  H         5.1504771494       15.6317523582       22.1183276614
  C         6.3795150913       13.8754782701       22.0322035926
  N         2.3861990123        6.7844558159       20.5477564702
  C         2.9109815116        7.2202231880       18.3596954752
  C         3.4280875217        9.4381709843       17.3689342505
  H         3.1559436102       11.1350756430       18.6214963915
  C         0.9878588673        9.6223887411       28.6279683401
  C        -1.4808466716        9.6855616372       27.7058926946
  C        -0.6868909856       12.3126871444       29.9670163029
  C        -0.7480583007       13.6848210398       30.0678097218
  H         7.4376686992       13.8873936885       22.0869284156
  H         6.2937174476       12.8786904236       22.5291464647
  C         5.9057390691       13.8402419258       20.6121537739
  S         2.4139605215        5.3375137702       19.9477951588
  N         2.8870314797        5.7903845993       18.4430517252
  C         3.3039006434        7.9477426494       17.2392071861
  H         3.6353700660       10.0938396555       16.5545381698
  H         1.3314997645        8.9224454889       27.8553057191
  H         0.6589879541        9.0124819679       29.4347815130
  C         2.1645972738       10.4748016074       29.1031739423
  H        -1.2941776618        8.7307390923       27.1561454075
  H        -1.8206546572        9.4927173695       28.7851735002
  C        -2.6072600529       10.4725004666       27.0132337472
  H        -0.8786246132       11.5886597309       30.7916679867
  C        -1.2193886167       14.4202466939       31.2505367232
  H         6.1998201161       14.7382836435       20.0691752786
  H         4.8174284836       13.6747011988       20.6476681020
  C         6.5702476893       12.6508505813       19.8069120494
  C         3.6693170984        7.2949338892       16.0212450135
  H         2.6292200004       11.1372316605       28.3203410789
  H         1.7211080207       11.1429906258       29.8355670620
  C         3.1552250194        9.5578149427       29.7432893237
  H        -2.2606949883       10.7718840908       26.0976646490
  H        -2.8240798375       11.3461484059       27.5865540524
  C        -3.8820914461        9.5813839446       26.7800144773
  C        -1.2915969531       15.8146822184       31.3768482387
  C        -1.5706043885       13.6480008634       32.4627512780
  H         7.6210776553       12.6732554241       20.0849675242
  H         6.1530133414       11.7343507999       20.2239164521
  C         6.3644263515       12.8349113799       18.3368905733
  H         3.3463033908        6.2318018438       16.0301842974
  C         3.9172964370        7.6845332141       14.6918290435
  H         3.4033338098        8.7675393584       29.0342789910
  H         2.6897124859        9.0239260981       30.5393927951
  C         4.3708264596       10.3116619622       30.2515027277
  H        -3.6840152347        8.6786685466       26.2562837604
  H        -4.3219812590        9.2719310665       27.7320841739
  C        -4.9068424326       10.2452482824       25.9685479280
  N        -0.8951755044       16.7393311234       30.3763842500
  C        -1.6726984979       16.4032975106       32.5582835581
  C        -1.8612465764       14.3452264112       33.7061075957
  H        -1.3458564478       12.5767043788       32.6080493461
  H         5.2952926233       12.8479428103       18.0853215393
  H         6.6926046893       13.7751548748       17.9844479912
  H         6.8927909006       12.0862520604       17.7807306195
  S         4.0916537821        9.3249248956       14.0361285125
  C         4.0456853552        6.6068988735       13.7123882730
  H         4.5859976832       11.2431813180       29.7411460188
  H         4.4258824355       10.5530230985       31.3266562740
  C         5.5826597619        9.3498024060       30.0762772569
  H        -4.8377532278        9.9386062386       24.8887885937
  H        -4.6964618448       11.2948296086       26.1226540173
  C        -6.3291491914        9.8927690712       26.3804614637
  S        -1.1073904879       18.2492991296       30.9725342681
  N        -1.6071960381       17.7871082492       32.4376578165
  C        -2.0355982465       15.7523374800       33.7666056112
  H        -1.9837739357       13.7229522858       34.6040382547
  C         4.3773397577        8.4809736362       12.5357351377
  N         4.3580244991        7.1316745589       12.4897888032
  O         3.8785718188        5.4121162824       14.0004972992
  H         6.5164545416        9.8999234508       30.1634234953
  H         5.6883238967        9.0212958137       29.0626042600
  C         5.6673921751        8.2002393326       31.0653502308
  H        -6.4625165092        8.8151881688       26.4402616876
  H        -6.5156621466       10.3270574912       27.3233525217
  C        -7.3197554389       10.4671680829       25.3214883058
  C        -2.4391487209       16.5665142952       34.8981837081
  S         4.3007707890        9.2438109301       10.9663906232
  C         4.4526942384        6.3124810660       11.2731270780
  H         5.9454538365        8.7116564238       32.0077964842
  H         4.7586074312        7.7473046695       31.3137453078
  C         6.6962117640        7.1076164893       30.5436659933
  H        -6.7851859868       10.4715787416       24.3156219727
  H        -7.6160138673       11.4726212316       25.5802579796
  C        -8.6505193835        9.6749265306       25.1914881578
  H        -2.3457255770       17.6677123955       34.8146736883
  C        -2.7880775269       16.2443625716       36.2080311442
  H         5.2340107244        6.6892036198       10.5863410119
  H         4.6743246679        5.2750120114       11.4935638272
  C         3.1135852885        6.2462546001       10.5379885031
  H         7.7124001930        7.4081403565       30.5259984193
  H         6.3899955018        6.7775466285       29.5715012362
  C         6.6588392893        5.9913296547       31.6031121506
  H        -9.3800723893       10.3432748512       24.6492094172
  H        -8.4544355825        8.7680708148       24.7003350484
  C        -9.2724197180        9.6472161888       26.5515278021
  S        -2.8997365658       14.7088123929       37.0721493260
  C        -3.1517696585       17.4505117658       37.0873986308
  H         2.8493075580        5.3247078282       10.0039740326
  H         2.2404774795        6.3801888787       11.2134744334
  H         2.9836007125        7.0413145622        9.8059647964
  H         5.9759582745        5.2070092988       31.3770945283
  H         6.4330225512        6.4326444948       32.5563524258
  H         7.6966189838        5.5206275584       31.5129494882
  H        -8.9502682352       10.5265290613       27.1481721506
  H        -8.9531677558        8.7133640651       26.9805474175
  H       -10.3570684500        9.6734020457       26.5477428272
  C        -3.3350540027       15.6163424024       38.4984592327
  N        -3.4879982699       16.9590185915       38.3117693067
  O        -3.1013847759       18.6025616366       36.7118096075
  S        -3.8237627677       14.8559917489       39.9645974689
  C        -3.7107331174       17.8527795992       39.4624646909
  H        -4.1693727514       18.8349739340       39.0710585514
  H        -4.4507083330       17.3769710367       40.1093779631
  C        -2.3898289180       18.1457016724       40.2039436670
  H        -2.5667373071       18.7853685221       41.0767776200
  H        -1.9585190149       17.2310873455       40.6407585326
  H        -1.6548392362       18.5783337389       39.5371484558
  H         7.6224871561       10.0660876734        3.1805257170
  C         8.5148839510        9.4966366002        3.4081127651
  H         8.1477947958        8.4392488923        3.3288309701
  C         8.9634226579        9.9063299359        4.7947250951
  C         9.5934466689        9.6310380535        2.3787457163
  C         7.8254246313       10.1989333172        5.7599853512
  H         9.5419872881        9.0601319176        5.1680680891
  H         9.6036120789       10.7587663062        4.7098909999
  H         9.4502697366        8.8968477901        1.6057502808
  H        10.5070392036        9.2714702270        2.9085897728
  H         9.7611335740       10.6434930895        1.9566140042
  C         7.0207983614        8.8881291810        6.2347015463
  H         8.2269919443       10.6589307706        6.6815229752
  H         7.1216040240       11.0050614253        5.2659115704
  C         6.4658939589        9.0997983377        7.6319223516
  H         7.6931805706        8.1308545233        6.1845003971
  H         6.2790553110        8.7282657145        5.4548728714
  C         5.3243061448       10.0945410920        7.6547476699
  H         7.3325828276        9.4718080147        8.2610208577
  H         6.2746749115        8.1974397577        8.1774031236
  C         4.0572702891        9.4863640204        7.1234904376
  H         5.1625374856       10.5339149363        8.6755815544
  H         5.6856083990       11.0503282981        7.1753377069
  C         2.9260143662       10.5665900515        6.8573465586
  H         3.8196623289        8.7444482535        7.8864252934
  H         4.1969033866        9.0761591860        6.1631985479
  C         3.3220532426       11.9267436586        6.1596033078
  C         2.4594546538       11.2851503879        8.0612874903
  C         1.6861752450        9.9269334765        6.2024594399
  C         3.0535526859       13.0287056302        6.9689126739
  C         3.7802470405       12.3392598988        4.8475066924
  C         2.5186038644       12.6113117095        8.1553861422
  C         1.9827170513       10.6862621568        9.2295680398
  H         1.9797507287        9.2289795952        5.3967433876
  H         1.5363788041        9.1332705780        6.8930226572
  C         0.5152365996       10.8786277345        6.1389316880
  S         3.3564307336       14.5498330960        6.2755363923
  C         3.9526711402       13.7510261755        4.8632798051
  H         3.9854079722       11.5927551877        4.0524070033
  C         2.0632972664       13.2430576590        9.2726888946
  H         1.9323632811        9.6296807278        9.2153478195
  C         1.5946545906       11.2828264268       10.3268968287
  H         0.9000879372       11.8896522995        5.8516774533
  H        -0.0100889663       11.0601722125        7.0487991278
  C        -0.4130848502       10.4773887828        5.0084238609
  C         4.3334468431       14.5513367906        3.6399371730
  C         1.6405910742       12.6058201824       10.4479417277
  H         2.2395956806       14.3702595375        9.1966421949
  C         1.1327817611       10.8859847480       11.5549781445
  H        -1.1908442602       11.2836634751        5.0758529797
  H        -0.9778885663        9.5649051821        5.2607862334
  C         0.2399382833       10.4607285948        3.6024910451
  C         4.0626532329       15.9013888963        3.2677245572
  C         4.7765232610       13.6758303230        2.5425979625
  C         1.2883149154       13.2980220501       11.6899307518
  C         0.9729252354       11.9673468264       12.3421546234
  S         0.6841993285        9.4361585706       12.3646178313
  H         0.9990003065        9.6736129143        3.5327212620
  H         0.7377913491       11.4307783653        3.4560575084
  C        -0.8434524376       10.1485286038        2.5359296218
  N         3.6112766425       16.8833869177        4.1465524299
  C         4.3671766138       16.3773361151        1.9882630853
  C         5.0585532384       14.1478954755        1.2866776739
  H         4.9516272978       12.6112989948        2.6061767832
  C        -0.0522923083       14.1233463971       11.4631854655
  C         2.4455541638       14.0680581993       12.3182632671
  C         0.7726824792       11.7089330501       13.7055962671
  C         0.6009071812       10.3266418790       13.8389040524
  H        -1.4773224237        9.4291973010        2.9923978906
  H        -1.5259033947       11.0065304756        2.3195632970
  C        -0.3335521794        9.5743348449        1.2414439016
  S         3.5641354367       18.2342579674        3.3589724084
  N         4.0808316031       17.7067900598        1.9291432461
  C         4.8971039704       15.6193874757        0.9767446052
  H         5.4763064988       13.4092849451        0.6364756047
  H         0.1443924457       14.8572787840       10.6976523781
  H        -0.2437788792       14.7261655567       12.3634401174
  C        -1.2622338126       13.2494903475       11.1217386320
  H         2.7345240396       14.9321087445       11.7015608272
  H         2.1191386172       14.4977504547       13.3131557788
  C         3.7043728549       13.3687176699       12.8532799949
  H         0.7987023931       12.4718293465       14.4596641007
  C         0.3355156070        9.5718947438       15.0891275298
  H        -0.5893627949        8.5108248245        1.2877567494
  H         0.7613774763        9.5390410254        1.0948803791
  C        -1.0625033476       10.1851863834       -0.0251832063
  C         5.1332235443       16.1935260642       -0.2944296463
  H        -1.0647341988       12.6446738830       10.2444091714
  H        -1.4966583553       12.6068452461       11.9518948003
  C        -2.5174624950       14.0707541950       10.7878677890
  H         4.2645144161       13.0538331332       11.9475982245
  H         3.2825900227       12.5415622003       13.4544247273
  C         4.5463079392       14.0974084704       13.9032817411
  C         0.2292248471        8.1445545666       15.2311808977
  C         0.2501997129       10.2926542504       16.3889325483
  H        -2.0367663474       10.4959587587        0.1448474592
  H        -0.6025340769       11.1579313591       -0.2410627500
  C        -0.8786115678        9.3273624415       -1.2578624462
  H         5.0263385345       17.2930510859       -0.2739879665
  C         5.5493911358       15.7145439698       -1.5201979480
  H        -2.2918204369       14.8555744813       10.1023593195
  H        -2.8602497530       14.5866892158       11.6917372668
  C        -3.6328687193       13.1916223161       10.1361789250
  H         4.9251679891       15.0097908598       13.4873251631
  H         3.9707204474       14.3716771945       14.7235687608
  C         5.6149331332       13.2289805783       14.5657784656
  N         0.4342182612        7.2352896247       14.1740159288
  C         0.0392966055        7.5280270273       16.4653943488
  C        -0.0890134095        9.7015185600       17.5937638095
  H         0.1024305614       11.3238049392       16.3282207979
  H        -1.2852719808        9.9789287428       -2.0501276052
  H        -1.3246475884        8.3578416630       -1.1928354855
  H         0.2306838419        9.2473658457       -1.4085366267
  S         5.8070476805       14.0707414563       -1.9453746088
  C         5.6503556155       16.6557406240       -2.6583606622
  H        -3.1979026424       12.6387439336        9.3739065204
  H        -3.9739793773       12.5117477925       10.9457843410
  C        -4.7451990186       14.0462006215        9.5939341355
  H         6.0533061974       12.6033376644       13.7729481655
  H         5.3348957375       12.6453801042       15.5081619052
  C         6.7986681186       14.1200833494       14.8787677643
  S         0.5610942360        5.7065114128       14.8407408267
  N         0.0962441527        6.1360145283       16.3459425754
  C        -0.1913643453        8.1967783955       17.6907945804
  H        -0.2091162349       10.2503043467       18.5583268172
  C         6.2535725265       14.6929437711       -3.5485554990
  N         6.0751215072       15.9829242760       -3.7756303438
  O         5.2333294461       17.8517591271       -2.5244493580
  H        -4.8955916465       14.6429890725       10.5071388859
  H        -4.3878848495       14.6494181655        8.7612844899
  C        -6.0028321519       13.1521862709        9.1595795132
  H         7.3734998799       13.4450523120       15.4943592111
  H         7.3038307247       14.2541939074       13.8727995157
  C         6.4242029384       15.5081961695       15.5465495547
  C        -0.4330951278        7.4115302755       18.8672482977
  S         6.2988186317       13.6635977762       -4.9799911434
  C         6.2579554306       16.5953885823       -5.0202682046
  H        -5.6735695009       12.4887536698        8.3727122155
  H        -6.3620415808       12.4905136299        9.9796435740
  C        -7.3186014024       13.9026543362        8.9122009922
  H         5.6328467600       15.4594542154       16.2867413594
  H         6.2021555449       16.2029247812       14.7610286942
  C         7.6695827828       16.1501872204       16.1214090919
  H        -0.2535613277        6.3480435534       18.7173191758
  C        -0.9368999879        7.7284581261       20.0703167575
  H         6.9374680512       16.1496473646       -5.7465387139
  H         6.7607994407       17.5284625918       -4.7908270210
  C         4.9141693160       16.7660289745       -5.6924284779
  H        -7.9374447278       13.3079389572        8.2141973000
  H        -7.1217486069       14.8053383298        8.2899012685
  C        -8.1821893939       14.1473881024       10.1302683642
  H         7.6049854296       15.9067202516       17.2244123257
  H         8.5706769623       15.7094765889       15.6606304142
  C         7.7876891465       17.6315303412       15.8440234484
  S        -1.5001180480        9.2155720577       20.7103070557
  C        -1.0283935551        6.6497873793       21.0351482661
  H         4.1902729324       16.8872548593       -5.0283056470
  H         4.7430865773       16.0409506099       -6.4444152589
  H         5.0188825761       17.7844798162       -6.1077312577
  H        -9.1996586714       14.4995356869        9.9177126640
  H        -8.2326762431       13.2995559213       10.8129498040
  H        -7.6379030033       14.8695301723       10.7998052321
  H         8.4811991566       18.1360014483       16.5357765648
  H         8.1233561060       17.7566197249       14.7852705053
  H         6.8357161207       18.1015262357       15.8481945482
  C        -1.6354672139        8.4592437395       22.2438158237
  N        -1.5614568244        7.1466299842       22.2152789517
  O        -0.6499910752        5.5102858032       20.8308732202
  S        -2.1670135420        9.2187355045       23.7139367443
  C        -1.8660247296        6.2355370290       23.3583767093
  H        -2.0392237329        5.2864397028       22.9379104229
  H        -2.8322708913        6.5231779927       23.8480307400
  C        -0.7425057110        6.2095102095       24.4089001657
  H        -0.8980743802        6.9141250054       25.1928567617
  H         0.1464685814        6.4356976096       23.8323012456
  H        -0.6958795228        5.1996471905       24.8502219974
