352
i =
  H        -2.5585291426       14.2353494588       16.5552739011
  C        -3.4970948387       13.6771649287       16.7004209541
  H        -4.2823839029       14.3887569860       16.8271098507
  C        -3.3280681655       12.8920923532       17.9998900705
  C        -3.5859928115       12.7750774034       15.4891649870
  C        -2.7986560811       13.7540986251       19.1628115139
  H        -4.3103413358       12.6061752274       18.2502542523
  H        -2.6362588689       12.0627175091       17.7722833973
  H        -3.5508762355       13.2790842017       14.5184614969
  H        -2.9103693599       11.8834755450       15.5182245031
  H        -4.5743941747       12.3018035420       15.5979406350
  C        -2.1161730068       12.8691144927       20.2340411259
  H        -3.6167802503       14.1811152416       19.6787624028
  H        -2.0969684053       14.5080806089       18.8327114975
  C        -2.6765866206       13.0607992143       21.6521979297
  H        -2.2863422192       11.8447854182       19.9181349442
  H        -0.9498423044       12.9542968420       20.2213557201
  C        -1.6352972606       12.6893033170       22.6131661639
  H        -3.4749686498       12.2848795615       21.8613259579
  H        -3.0113132323       14.0438542746       21.7657000395
  C        -0.3181719884       13.4709241076       22.7019673435
  H        -2.0951752635       12.6989001603       23.6607702936
  H        -1.4545988404       11.5894531840       22.5100886827
  C         0.9061395013       12.8264935098       23.4596793216
  H         0.0949878787       13.6849597581       21.7309175463
  H        -0.4561561297       14.4492071574       23.1761250482
  C         1.2776320561       11.4594411035       22.6925050747
  C         0.3622856494       12.0955219342       24.5716024802
  C         2.0094390940       13.8253001115       23.8218887736
  C         0.9948664377       10.3711086646       23.3912683908
  C         1.7631932194       11.0995241793       21.3809765214
  C         0.3815361266       10.7289950088       24.6071148297
  C        -0.1790011840       12.6323509523       25.7380046443
  H         2.0846150871       14.5803647964       23.0219051079
  H         1.7722688847       14.4512895437       24.6876649353
  C         3.4321673297       13.1278435936       23.8324504301
  S         1.4932242595        8.9095585695       22.7358166309
  C         1.8234955032        9.7660376876       21.1976279719
  H         1.9842052339       11.8172612963       20.6379386906
  C        -0.0085199268       10.0737116837       25.6921796548
  H        -0.3684791344       13.7322328108       25.5426873405
  C        -0.5571754863       12.0171388098       26.8469483400
  H         3.4820731652       12.5587496844       22.9675564117
  H         3.5121498350       12.4738659371       24.6731644302
  C         4.5887095930       14.0728589102       23.9214562361
  C         2.1449429829        9.0605538739       19.8953702108
  C        -0.5003710293       10.6599841469       26.8509380437
  H         0.0014511210        9.0609897478       25.6547899936
  C        -0.8634480340       12.3263260215       28.1242155679
  H         5.4965752893       13.6199162572       24.3701400509
  H         4.4032242707       14.9034615305       24.6226013648
  C         4.8753564729       14.6635193092       22.6063713774
  C         2.0237967899        7.6558479055       19.5221056097
  C         2.7044781086        9.8580874127       18.7558879598
  C        -0.8685399100        9.9425647805       28.0587655477
  C        -1.0796456185       11.2395548609       28.8749258054
  S        -0.9753039408       13.7109680018       29.0531260484
  H         5.1840926770       15.7220522590       22.6884497411
  H         3.9678538540       14.7969524779       22.0792203029
  C         5.8399645643       13.8295499090       21.8181437193
  N         1.7129753246        6.6144798963       20.4308032368
  C         2.3853888386        7.1219179367       18.3055333036
  C         3.0488436708        9.3125998119       17.4893211571
  H         2.8759822289       10.8991353697       18.9820005744
  C         0.2754709748        9.0492866091       28.7058622720
  C        -2.1335594576        9.1415292524       27.8552681225
  C        -1.4393984936       11.5132075630       30.2239558627
  C        -1.4739289835       12.8281737765       30.4544790778
  H         6.5477215797       14.4632492878       21.4416651036
  H         6.3881636066       13.1227824505       22.4576837466
  C         5.1991501849       13.2662423412       20.5446795299
  S         1.9650424288        5.1941421961       19.6833721175
  N         2.2819637463        5.7164747557       18.2208732482
  C         2.8987048106        7.8700424011       17.1720103274
  H         3.4987677247        9.9269398089       16.7119471310
  H         0.5906828539        8.2521540336       28.1390689560
  H        -0.1562838121        8.5444642006       29.4691641494
  C         1.4369602672        9.8990333730       29.2167924668
  H        -2.0446693180        8.4247036289       26.9851027087
  H        -2.3914410968        8.6588540251       28.8055811601
  C        -3.4102992909        9.9846759894       27.4826792405
  H        -1.4186255855       10.7241816589       30.9264060328
  C        -1.9111676851       13.5341194221       31.7020747099
  H         4.2205663509       13.8223168791       20.2613929428
  H         4.9641657496       12.2995069008       20.7995873046
  C         6.1207612569       13.3037128964       19.3165853876
  C         3.1535340252        7.1956517069       15.9221439993
  H         1.8572665234       10.5633720639       28.4638758020
  H         1.0752329926       10.5122454428       30.0416775655
  C         2.4770000876        8.9907947281       29.7315281442
  H        -3.2210125483       10.5684940389       26.5448729508
  H        -3.5817228072       10.7010069544       28.2309119738
  C        -4.7165310083        9.1399179175       27.3633010533
  C        -1.9393597219       14.9560806416       31.9027806368
  C        -2.3597308078       12.6798021358       32.8974165977
  H         5.7929120873       12.6683152054       18.5246638963
  H         6.1404714737       14.2691432125       18.8943610165
  C         7.6024414207       12.9371078274       19.4526775131
  H         3.1601910687        6.1060681897       15.9718506126
  C         3.5060620801        7.6314508824       14.6803174775
  H         2.7991274523        8.3462581663       28.9638571381
  H         2.0988295051        8.3681808768       30.5028887249
  C         3.6013343192        9.7696168739       30.2251299597
  H        -4.6649787179        8.6792944144       26.3467165563
  H        -4.7465694093        8.4462838748       28.1960212266
  C        -5.9402294910       10.0634549246       27.5578161597
  N        -1.7535969929       15.8929291437       30.8897892493
  C        -2.3948167519       15.4941406980       33.1231490477
  C        -2.7002607702       13.2529694716       34.0631325248
  H        -2.3852718869       11.6008592014       32.7359599336
  H         7.7100637942       12.0626447546       20.0902870689
  H         7.8691046327       12.5467530408       18.4317789654
  H         8.2590412531       13.7234059537       19.8031088768
  S         3.7627943378        9.2848927820       14.1745086046
  C         3.7004898985        6.5386444232       13.6545533568
  H         3.8842873128       10.5810031934       29.5026180675
  H         3.3018165900       10.1450040458       31.1574042960
  C         4.9958279056        9.0344981842       30.3996173869
  H        -5.6716484996       11.0807097209       27.2011688291
  H        -6.0483299706       10.0790852645       28.6309779407
  C        -7.2951702229        9.5821893874       26.9869452842
  S        -1.9494847230       17.3982758759       31.5843185727
  N        -2.4827150674       16.9049656348       33.0404805077
  C        -2.6534761538       14.7187023979       34.2599404485
  H        -2.8808627355       12.5529360683       34.8422949887
  C         4.1310931863        8.5411100528       12.6277494398
  N         4.0869647904        7.1904839474       12.5768777176
  O         3.5217185899        5.3315314769       13.7654891875
  H         5.6632043346        9.9227446582       30.7366539637
  H         5.3242597171        8.6781138887       29.4733030516
  C         4.9285983953        7.9856274754       31.4996801955
  H        -7.2424950205        8.5213084633       26.8389584224
  H        -7.9929134745        9.7423102543       27.7381017923
  C        -7.7246949045       10.2435888899       25.6452800507
  C        -3.0046873840       15.4451618269       35.4484550278
  S         4.6676701244        9.4050058558       11.2174575692
  C         4.3073905297        6.4775279957       11.3734424355
  H         5.6756332370        8.1522351186       32.2454828148
  H         4.0170016275        8.0915386586       32.0709646733
  C         4.8928462180        6.6045971992       31.0006147587
  H        -6.9033650120       10.2023604419       24.9359918910
  H        -7.8836891293       11.3922519755       25.8035609967
  C        -9.0039987797        9.7198522701       25.0619958450
  H        -2.7044003510       16.4847082876       35.4596738782
  C        -3.5850378986       15.1156512163       36.6678231389
  H         5.1305178139        6.8697853247       10.8263455618
  H         4.4156639586        5.4071851264       11.6468379334
  C         3.0219839571        6.4788976505       10.5070851831
  H         4.0303618970        6.5301633720       30.3890489644
  H         4.5293194656        5.9688196290       31.8328967617
  C         6.1058167476        6.0279304331       30.2832983780
  H        -9.2477817360       10.0966037193       24.0765099159
  H        -8.9374465787        8.6186760268       24.9983015994
  C       -10.2692313710        9.9674573164       25.9045333945
  S        -4.3585665003       13.6807065387       37.1152947908
  C        -3.7387893178       16.1255197778       37.7214737870
  H         2.9823767940        5.5058220936       10.0378444780
  H         2.1201292871        6.4718417910       11.0507282729
  H         2.9556861957        7.1176664737        9.6245390383
  H         5.9497706742        6.0624631076       29.2382388267
  H         6.0088479235        4.9745055703       30.5277708532
  H         7.1022838559        6.4091816286       30.6270899566
  H       -11.0470385431        9.2844151993       25.5623202188
  H       -10.6687421286       10.9418074185       25.9087337886
  H       -10.1355720571        9.7357294344       27.0162995864
  C        -4.7347832825       14.3203890371       38.6427221502
  N        -4.3141578783       15.6037314857       38.8253610775
  O        -3.4150197866       17.2892178687       37.5555359804
  S        -5.4135860053       13.4167329863       39.9423543599
  C        -4.5258800484       16.3151056019       40.1095121529
  H        -5.1343065024       17.1852075223       39.8811297752
  H        -5.0527419891       15.7243545969       40.8087397221
  C        -3.1825605986       16.6276521427       40.6318034826
  H        -3.0764046863       16.7187013486       41.6992452386
  H        -2.5061965716       15.8318317167       40.2664585613
  H        -2.7906694245       17.4788746719       40.0835672033
  H         7.1377743482       10.5757612588        3.4349839564
  C         8.0699243514        9.9863652787        3.4243302403
  H         7.7665587748        8.9917223421        3.5976219892
  C         8.7515544431       10.6369916246        4.7144081854
  C         8.8891163030       10.0739416368        2.1797872912
  C         7.7106529980       10.6983314203        5.8555073216
  H         9.5598476244       10.0152874741        5.0656701639
  H         9.0498306394       11.6711452611        4.5017296716
  H         8.3066236059       10.5269285442        1.3365432661
  H         9.3086600700        9.0948310712        2.0023077288
  H         9.8173445735       10.6722421559        2.3229841938
  C         7.2920083196        9.3375295432        6.5179609547
  H         8.3199031079       11.1945616117        6.6182654299
  H         6.8337760261       11.2904036657        5.5907377330
  C         6.4523234103        9.5448643308        7.8070164183
  H         8.1470662944        8.6537704860        6.6736907994
  H         6.6127777266        8.7905982802        5.8845523515
  C         5.1341348679       10.3580799736        7.7573951975
  H         7.1227573866       10.1013411983        8.5047472757
  H         6.2338036012        8.5301654673        8.3000949826
  C         3.9802116974        9.5933597798        7.0819673651
  H         4.8695722670       10.6116727230        8.7911588170
  H         5.4408677091       11.2178025750        7.1926785590
  C         2.6264062896       10.4393824693        6.8846148663
  H         3.6704700190        8.6722969045        7.5614353521
  H         4.3355663949        9.2293645452        6.1544151010
  C         2.9629509417       11.7670830895        6.2834844105
  C         2.1825689159       11.0391927845        8.1371900611
  C         1.5206110199        9.5693487558        6.1931732877
  C         2.7539696961       12.8184452259        7.1287267957
  C         3.3509529703       12.2392874245        5.0300547231
  C         2.1551331844       12.4310694554        8.2869792727
  C         1.8660670177       10.3319999257        9.2849846120
  H         1.9723539301        8.9649471837        5.4167218863
  H         1.1280218052        8.7911978613        6.7752633637
  C         0.3672841681       10.3583197005        5.5773696415
  S         3.2064593282       14.3704720103        6.4480035170
  C         3.6168435276       13.5568748007        4.9469339771
  H         3.5086370987       11.4756034810        4.2780624304
  C         1.8302588088       12.9794227963        9.4474809199
  H         1.8894153605        9.2557307157        9.2054422103
  C         1.4965697852       10.8813246001       10.4701612618
  H         0.7203187029       11.3340889068        5.1758337561
  H        -0.3565990377       10.5906033697        6.3370908815
  C        -0.2735672375        9.4576003834        4.4533686580
  C         4.1388698608       14.2793584781        3.7282779634
  C         1.5206976531       12.2021573759       10.5678234758
  H         1.7268856694       14.0090387122        9.5326070490
  C         1.1125500279       10.4918555309       11.7434118188
  H        -0.8921272611        8.6907914427        4.9084210879
  H         0.4576931155        8.9905160752        3.8330686436
  C        -1.1498469398       10.3929765260        3.5809259793
  C         4.2615535296       15.6966648309        3.5634140316
  C         4.5206733528       13.4672900126        2.5572836541
  C         1.2536441116       12.9099933443       11.8787006217
  C         0.9812750522       11.5588621481       12.6097049461
  S         0.8338830972        8.9536285312       12.5434402675
  H        -0.5575122289       11.1401379320        2.9981972465
  H        -1.7220619311       11.1725357154        4.1541568237
  C        -2.0382054451        9.5359007531        2.5884075277
  N         3.9633975799       16.6969981621        4.5123370089
  C         4.6524839797       16.2597172729        2.3595339887
  C         4.9286781854       13.9710315951        1.3068526730
  H         4.5969907482       12.4093229306        2.7339544166
  C        -0.0048064742       13.7908764222       11.9797759904
  C         2.4241867167       13.6558934724       12.4744680799
  C         0.6182436788       11.0698180908       13.8853967120
  C         0.4233002562        9.6845797542       13.9987244217
  H        -2.3878980714        8.6321709138        3.1212470943
  H        -2.8819457457       10.0990645595        2.2793124720
  C        -1.3241296466        8.9531345557        1.4422361805
  S         4.2296132712       18.1275623634        3.8230556080
  N         4.5923870871       17.6506604388        2.3339776440
  C         4.8899617448       15.5033964627        1.1655515491
  H         5.1247327298       13.2201534730        0.5972667171
  H         0.3124932702       14.7990449101       11.5626136677
  H        -0.3721101101       13.9101721804       12.9914388867
  C        -1.1782009490       13.2890302693       11.0214522232
  H         2.7768942541       14.3702715631       11.7089827536
  H         2.1436134878       14.2528557738       13.3109964106
  C         3.5279039355       12.8087932956       13.0405242715
  H         0.3012475057       11.7793593297       14.6655717735
  C        -0.1053403366        8.9849462196       15.1605784806
  H        -1.9620021313        8.3144280254        0.8513154463
  H        -0.6309867419        8.2460355177        1.8740108432
  C        -0.8076009802        9.8864838981        0.3384211120
  C         5.2080684615       16.1722063186       -0.0542931752
  H        -0.7921562498       13.5084126353       10.0188654906
  H        -1.1571717833       12.2124472248       10.9059193323
  C        -2.5193855578       13.9849776599       11.1884494760
  H         3.8254212170       11.9355841189       12.4213663483
  H         3.2460573287       12.3848797310       14.0869528410
  C         4.8279400646       13.5492943112       13.2105146529
  C        -0.1846815050        7.5468352203       15.3255326720
  C        -0.1954189641        9.7121885596       16.4379031965
  H        -1.6297180071       10.5615381546        0.0826832028
  H        -0.0675742726       10.5299491466        0.7584455921
  C        -0.3492329472        9.1337985640       -0.9518336924
  H         5.0755205443       17.1926981289       -0.0671245639
  C         5.5318160448       15.7167162189       -1.2998596738
  H        -2.4257044565       14.9966633416       10.7650895421
  H        -2.6715569374       14.1720451810       12.2498058477
  C        -3.6505699200       13.0905503877       10.5702696369
  H         5.6076159424       12.7602315642       13.3741298783
  H         5.1512658446       14.0618028150       12.2632592420
  C         4.8600184302       14.5290804761       14.3887872376
  N         0.1678687776        6.6150101614       14.3620776444
  C        -0.6013505045        6.9527285885       16.5266912947
  C        -0.5370729511        9.1309787227       17.6517407927
  H        -0.1122597122       10.7907529347       16.4277948156
  H        -1.1336570308        9.1452782146       -1.6502624620
  H         0.0688092709        8.1132376104       -0.8301695252
  H         0.5475688214        9.6045238281       -1.3075563438
  S         5.8951980436       14.0544752095       -1.7277152970
  C         5.4795104900       16.6418111704       -2.4661111578
  H        -3.3268793901       12.4464375128        9.7048748635
  H        -4.1039775854       12.4267879943       11.3075095294
  C        -4.7140517402       13.8915087932        9.8240989999
  H         4.0747748738       14.3953704371       15.0958287267
  H         4.6487502576       15.6147047104       14.1313330889
  C         6.1096720598       14.4834198476       15.2473720885
  S        -0.0665160966        5.1530811636       14.9800039623
  N        -0.5672660972        5.5719783653       16.4756568790
  C        -0.8281931022        7.6357931183       17.7511808491
  H        -0.5439324697        9.7578703357       18.5487714852
  C         6.0686156786       14.6495479446       -3.4006901426
  N         5.9463941027       15.9655807521       -3.5430141032
  O         5.3502272642       17.8674132957       -2.3909569691
  H        -5.1566780319       14.4552959616       10.6545476704
  H        -4.3270800663       14.6302493127        9.1669446102
  C        -5.6929410462       12.9447098661        9.1788259300
  H         5.6917658764       14.0829296571       16.1860608070
  H         6.8727941287       13.8650462722       14.9600001719
  C         6.7364378357       15.8248226960       15.6347989515
  C        -1.2264188947        7.0480324727       18.9584033221
  S         6.6129836795       13.7878930312       -4.8693628834
  C         5.9646272665       16.6643094260       -4.8671282473
  H        -5.3926059575       12.7415271753        8.1869187171
  H        -5.6672280256       12.0348747909        9.8039088889
  C        -7.1652385058       13.4797378152        8.9804821597
  H         7.2065377183       15.8679712740       16.6012489161
  H         5.9532349147       16.5324614585       15.7237372592
  C         7.9288876574       16.1356426009       14.7748486164
  H        -1.0970799449        5.9737424770       18.9229193482
  C        -1.7151543487        7.5251160955       20.1530376160
  H         6.7003057472       16.1976338762       -5.4602566497
  H         6.2615551807       17.7155117061       -4.6553223324
  C         4.6577114562       16.6440158294       -5.5863358256
  H        -7.7122371738       12.9826513915        8.1388827853
  H        -7.3260256534       14.5973401072        8.9592886760
  C        -7.8962298028       13.0651242700       10.2472117938
  H         8.5044804622       16.7968170236       15.4156680696
  H         8.5404476638       15.2470486114       14.5620403162
  C         7.4880804442       16.8623970697       13.4913654357
  S        -2.3940343806        9.1308511936       20.4334536110
  C        -1.7957921872        6.6286178207       21.3187783614
  H         4.1445731911       17.5281171291       -5.4087807098
  H         4.0669287668       15.8825545276       -5.0737740007
  H         4.6586588118       16.4549088071       -6.6807807883
  H        -8.8614544071       13.5772121635       10.2371972118
  H        -8.2055046102       12.0361494427       10.3027738593
  H        -7.3115484028       13.2470722403       11.1046106707
  H         7.8993394265       16.5155776406       12.5149351799
  H         6.3801354978       17.0020561327       13.3390524264
  H         7.8948156657       17.8674994992       13.6346066664
  C        -2.5801910787        8.6221986024       22.1565259418
  N        -2.4013706460        7.2990950363       22.3557279922
  O        -1.4508667550        5.4935943833       21.4252255356
  S        -3.3063419687        9.5781329360       23.3970169586
  C        -2.5757198584        6.7355650296       23.6695247770
  H        -2.7976200005        5.6473063802       23.5232656125
  H        -3.4309161450        6.9871984601       24.2774149824
  C        -1.3063745214        6.8514328389       24.4193935110
  H        -0.5742782459        6.0205695819       24.1703960879
  H        -1.4371795331        6.8728359226       25.5128793251
  H        -0.8852139781        7.8436757620       24.1487605227
