352
i =
  H        -3.2690247722       15.2624017203       16.2276914442
  C        -3.2693242530       14.1846484754       16.2034205759
  H        -4.2765962838       13.9262548197       16.5513411098
  C        -2.1828585113       13.7938089161       17.2636211942
  C        -2.9632849964       13.6223312998       14.7770313495
  C        -2.7028510963       14.1529525100       18.6448006140
  H        -1.9081343296       12.8016439511       17.1526933820
  H        -1.2472079374       14.3238715267       16.8539168615
  H        -3.4633041449       14.1600995998       14.0706026011
  H        -1.9485006644       13.3750428425       14.6064366135
  H        -3.3519830663       12.6872422620       14.4771072127
  C        -1.5802023806       13.6961820165       19.7110121122
  H        -3.5978388671       13.5691953831       18.9377864862
  H        -2.8725210046       15.2269643789       18.9215274704
  C        -2.1168365947       13.3926062034       21.0850016337
  H        -1.0922659782       12.8788430037       19.2077730526
  H        -0.8717750807       14.5329746470       19.6865367889
  C        -1.0683951920       12.8602025743       22.1226637309
  H        -2.9340477542       12.6585575725       21.0821602573
  H        -2.6751729166       14.1607758844       21.6529054033
  C         0.0346190601       13.8324224751       22.6748587320
  H        -1.4830116816       12.3742796352       22.9690701220
  H        -0.4935608182       12.1636357808       21.5188009674
  C         1.2655448798       13.0622686988       23.2661771331
  H         0.4306766934       14.3934168551       21.8322696904
  H        -0.4460477118       14.7453354851       23.2491520484
  C         1.6143268966       11.7936086417       22.6479651295
  C         0.8358965885       12.3718553358       24.4776441763
  C         2.5242854581       13.9598609627       23.4433838532
  C         1.3095405569       10.6737748633       23.4034282451
  C         2.0993401653       11.2951372332       21.4059906968
  C         0.8583692695       11.0694221574       24.6379780921
  C         0.4221551484       13.0243224638       25.6300844395
  H         2.6979298159       14.4342909693       22.5180261286
  H         2.2382012173       14.7617027307       24.1269859884
  C         3.7223034010       13.1838913886       23.9339364850
  S         1.5144536729        9.1787509412       22.6245856905
  C         2.1364568872        9.9619075517       21.2341687527
  H         2.3247389996       11.9471303171       20.6984095246
  C         0.4431177551       10.5431374029       25.8581973419
  H         0.3958360203       14.1141360277       25.5970784500
  C        -0.0415348773       12.5263900562       26.7920346512
  H         4.0063639521       12.4368342895       23.2153778532
  H         3.4106692638       12.5305341704       24.6880819862
  C         4.9132672796       14.0516344401       24.3044794432
  C         2.4709036044        9.1921686266       19.9872227189
  C        -0.0889511368       11.1883425076       26.9030671803
  H         0.6096699871        9.5312626045       25.8885792297
  C        -0.5246767281       12.8594544121       28.0062075852
  H         5.5365278509       13.4207786326       24.9584713322
  H         4.5164170391       14.9744819379       24.8033292824
  C         5.8190620397       14.4866342854       23.1449156980
  C         2.3983577294        7.8288908450       19.7834602039
  C         2.6989311025       10.0037663519       18.6956380186
  C        -0.4938617954       10.4341694725       28.0974931406
  C        -0.7936977015       11.7398727719       28.7242952097
  S        -0.9551656831       14.2117235113       28.8165747629
  H         6.5575744205       15.2839957113       23.3949914329
  H         5.2487151722       14.9067654829       22.2669213033
  C         6.6567978343       13.3488757488       22.5016101952
  N         2.0509797556        6.8890921087       20.7439316698
  C         2.5507048975        7.2609076538       18.4286952979
  C         3.1162308684        9.4282447074       17.5577463878
  H         2.7926695197       11.0616886315       18.9108995884
  C         0.6735257474        9.7245413489       28.8511461308
  C        -1.7189598871        9.4441324304       27.7896508503
  C        -1.1967346363       12.0158140203       30.0171733509
  C        -1.4437526723       13.2819733694       30.2364315686
  H         7.1797446584       12.7356791230       23.1788343342
  H         5.9050870511       12.6727071517       22.1502665091
  C         7.5660347555       13.8553155425       21.3006093290
  S         2.0347436285        5.4408164302       19.9531822688
  N         2.1908161138        5.9150148488       18.4150411619
  C         2.9566024270        7.9628490774       17.2837696592
  H         3.5004868835       10.0951222468       16.6150425635
  H         1.1698430620        9.0028224723       28.1413816201
  H         0.2115706622        9.1344511662       29.6845922372
  C         1.8218602130       10.5777974197       29.4689710236
  H        -1.3357340790        8.7881751764       27.0297009695
  H        -1.9064755190        8.8661718622       28.6512969177
  C        -2.8674960123       10.2443057431       27.4383593939
  H        -1.3382084129       11.1229923128       30.6906049788
  C        -1.7792210239       13.9817009559       31.4643390070
  H         8.3852674778       13.2574502163       21.2572316670
  H         7.8651739293       14.8726793774       21.5349770609
  C         6.7916925884       13.7864918802       19.9776066174
  C         3.1701756805        7.3131004818       16.0441118270
  H         2.1825716918       11.2354107520       28.7484654999
  H         1.5997283366       11.2723338929       30.2235351525
  C         2.9626984592        9.6565879781       29.9380266512
  H        -2.6491470180       10.8878437547       26.5050139686
  H        -3.1587799349       10.9724685956       28.2024048230
  C        -4.0400569541        9.3619224276       27.1309877945
  C        -1.9031408417       15.3651209765       31.7222730047
  C        -2.0378114597       13.1834875774       32.6518513236
  H         6.2969306596       12.8670415748       19.9237822451
  H         6.0627717018       14.5520039934       20.0281344875
  C         7.6952858758       13.8688642979       18.8064631598
  H         3.0817313581        6.2689727961       16.0754910714
  C         3.6193411230        7.6482685052       14.8758181079
  H         3.1617104832        8.9258070218       29.1483680873
  H         2.4647035663        9.2843993885       30.8117328765
  C         4.2737949655       10.2155358419       30.4333080919
  H        -3.8971213559        8.8244400583       26.2619120604
  H        -4.2598889542        8.8413895442       27.9768760615
  C        -5.2871574300       10.1738585213       26.9237100046
  N        -1.4951940654       16.3279858866       30.7955062090
  C        -2.2870096441       15.9441344323       32.9352509140
  C        -2.3613182094       13.7504958638       33.8362058997
  H        -1.9906583533       12.0384469507       32.7259291627
  H         7.2344744352       13.7448194841       17.8870314737
  H         8.2249753481       14.8282357957       18.7163420968
  H         8.5256392445       13.1102613676       18.7176379227
  S         3.8898040754        9.2368467371       14.3351904062
  C         3.5107351777        6.6430204190       13.7797499585
  H         4.5093410666       11.0360591190       29.7337220359
  H         4.0550331420       10.5853674877       31.4150350289
  C         5.4598031946        9.1994162350       30.2273476469
  H        -5.1950604483       11.1332014156       26.2898109150
  H        -5.9678438136       10.4271496197       27.8016257260
  C        -6.2185400078        9.5046624316       25.9695183445
  S        -1.6990687182       17.7872218798       31.4578725861
  N        -2.2434658014       17.3135883804       32.9360612737
  C        -2.5520102543       15.1719483043       34.0817857916
  H        -2.6713824767       13.0260209025       34.7818050385
  C         4.0742978506        8.5411179303       12.7644549527
  N         3.9261825790        7.1576663353       12.6332396489
  O         3.2227838492        5.4756174295       13.8799362254
  H         6.4085176059        9.7548415679       30.5506258787
  H         5.3073523047        8.9433152806       29.0923217559
  C         5.2520536086        7.9248235656       31.1144176991
  H        -5.7078634876        8.9935393893       25.1180604175
  H        -6.7603682907        8.6921949032       26.4245597134
  C        -7.1592088960       10.5027294749       25.4004866585
  C        -2.9614495202       15.8067453729       35.2893111990
  S         4.5801253340        9.3726500974       11.3454309815
  C         3.8445892434        6.4765457757       11.3484598098
  H         5.6786904738        8.2982435987       32.1086716892
  H         4.2957381412        7.6580215062       31.1587937325
  C         6.1116602621        6.7633840874       30.6799861276
  H        -6.7489254752       10.9971963190       24.5651462082
  H        -7.2300390033       11.4207565580       26.1152294323
  C        -8.4969329592       10.0029797137       24.8544716590
  H        -2.8937659107       16.8283403476       35.4012176486
  C        -3.4846457029       15.3882850662       36.4438801189
  H         4.5947522040        6.6061924786       10.5583425489
  H         4.2924014373        5.4358471767       11.3749934708
  C         2.4442013015        6.3886079734       10.6954081640
  H         7.1426506100        7.0397819752       30.4826403025
  H         5.7290485800        6.3822719497       29.7321665270
  C         5.9880914475        5.5675060499       31.6890596796
  H        -8.7858162681       10.5841656347       24.0660467806
  H        -8.4424681508        9.0976510694       24.4430771108
  C        -9.7303898094       10.1363371074       25.8206047500
  S        -4.0170739735       13.9002720789       36.8943078334
  C        -3.5632440558       16.4228553895       37.5651604321
  H         2.2510300367        7.3381152353       10.1667332391
  H         2.4273186661        5.4991283224       10.0212827512
  H         1.6154186800        6.0232342796       11.4488420776
  H         5.1340335983        4.9591445363       31.6117200670
  H         6.0578202096        5.8672711919       32.6972996589
  H         6.6922103178        4.8042401431       31.3470394149
  H        -9.6503771891        9.6981064546       26.8340075909
  H       -10.6909465359        9.8725627618       25.3277597921
  H        -9.9062851143       11.2275178777       26.0211163364
  C        -4.3985742348       14.5603285762       38.4858525913
  N        -4.0972066880       15.8398448067       38.5696675382
  O        -3.0757959822       17.5684820418       37.5106116841
  S        -5.2229046103       13.7426110412       39.8536564966
  C        -4.3504364226       16.6269442482       39.8478836762
  H        -4.4142854651       17.6924092657       39.6356292811
  H        -5.2297244451       16.4162193162       40.4629741443
  C        -3.0948939338       16.5043500272       40.7463848816
  H        -2.6881411148       15.4677297879       40.6215583515
  H        -2.3820975469       17.2060031876       40.2935301913
  H        -3.5523450187       16.7592636012       41.6768268692
  H         7.6862355212       10.5839273909        3.7662301158
  C         8.3363472193        9.7745633840        3.7744198094
  H         7.8662727117        8.8804947849        3.9103788360
  C         9.2638340578       10.0148850664        4.9748946331
  C         9.0912908512        9.7330536637        2.4265630178
  C         8.5064200542       10.4346620320        6.3211665586
  H         9.7430027165        9.1316407975        5.1428376930
  H         9.7357265212       10.8743176090        4.6566791878
  H         8.3473446258        9.8205431278        1.7225729338
  H         9.6724511178        8.7858341779        2.4416874636
  H         9.6676241419       10.5911538760        2.2901533485
  C         7.7569147172        9.3051710837        6.9378699489
  H         9.2460615262       10.8515443995        7.0104520379
  H         7.7832417044       11.0770471994        6.0185225289
  C         6.9788072310        9.6807007164        8.1444059942
  H         8.4636162787        8.6200981412        7.2596421620
  H         7.0663132473        8.8912135431        6.1333584721
  C         5.6139348609       10.5111446194        7.9313285656
  H         7.5773344600        9.9501608943        8.9082512691
  H         6.5716779288        8.8450402248        8.5841014858
  C         4.5189176273        9.6873681684        7.3751203608
  H         5.4002843555       11.0737419408        8.9372154108
  H         5.9525519980       11.3426418565        7.2406909662
  C         3.2399631087       10.5792471282        7.0190514205
  H         4.2141406516        8.8816824593        7.9885081578
  H         4.8373976180        9.1548731457        6.5589220882
  C         3.5915180447       11.8924148423        6.3431762793
  C         2.7087010870       11.2968323307        8.2397259480
  C         2.1201585251        9.8667585532        6.4085525922
  C         3.2621417509       13.0502285072        7.0437162333
  C         4.1729155507       12.3158519724        5.1394374852
  C         2.7839379549       12.6651244705        8.2957863979
  C         2.2400876199       10.7143766271        9.4108665829
  H         2.5896149420        9.5299717313        5.5645530584
  H         1.9323233592        8.9973174336        6.9819852408
  C         0.8397521507       10.7620533861        6.1630526335
  S         3.5003857303       14.5056238467        6.2397178026
  C         4.1709227302       13.6242864527        4.9470886946
  H         4.4737408822       11.5875987570        4.4428632256
  C         2.2213813898       13.2114041359        9.4370079101
  H         2.2146149120        9.7044554678        9.5537084306
  C         1.7599819662       11.3145684091       10.5236514256
  H         1.0515882795       11.6368337646        5.7228823956
  H         0.4500507943       10.9776404140        7.0849044192
  C        -0.1574522124       10.0880326876        5.1559524583
  C         4.4073360922       14.4541942358        3.6523646371
  C         1.7759607001       12.6450562497       10.6158171882
  H         2.0099886025       14.2167442465        9.3917498221
  C         1.2853534248       10.9332626336       11.7702044767
  H        -0.9581802837       10.6419745161        5.2095918100
  H        -0.4569451958        9.0701341460        5.4193117739
  C         0.3136039151       10.0891484041        3.7304641992
  C         4.3901416575       15.8156183760        3.3661923794
  C         4.6374705029       13.6279715579        2.4273576931
  C         1.1894597154       13.4109219611       11.8155737418
  C         0.8628750217       12.0241278182       12.4976212621
  S         1.0245942717        9.4551970804       12.5286476852
  H         0.9140296998        9.2860872280        3.5413092294
  H         1.1333215569       10.7868032251        3.5388904696
  C        -0.8060124806       10.0416115478        2.7021125232
  N         4.0468897796       16.8039189881        4.2777257091
  C         4.5252907765       16.3693988981        2.0513550613
  C         4.9080739187       14.1767827093        1.2005573429
  H         4.7798445177       12.5710581642        2.6014076720
  C        -0.1069029771       14.2313806542       11.5680247667
  C         2.2846915138       14.1031839010       12.6114775051
  C         0.2341068719       11.5833330084       13.6637958976
  C         0.3205859214       10.2941266060       13.8743150700
  H        -1.6384542588        9.4365672507        3.2329269805
  H        -1.1226231640       11.1037439177        2.4133498383
  C        -0.3497818511        9.0938201251        1.5811608169
  S         3.8734898171       18.1811943766        3.4918150610
  N         4.4330119747       17.7452234564        2.0615784474
  C         4.9008500202       15.6164638456        0.8770305953
  H         5.3237130468       13.6405158612        0.2462128300
  H        -0.1680930365       15.1478476068       10.9572828533
  H        -0.4783242966       14.6429533114       12.6309539838
  C        -1.3217716080       13.4124373595       11.0883671687
  H         2.9492630839       14.6909815156       11.8939193792
  H         1.9766554774       14.7974118845       13.4477925847
  C         3.3283195697       13.1858356389       13.1655064541
  H        -0.2685479992       12.2771966471       14.3831344180
  C        -0.0854884502        9.5208801532       15.1439988583
  H        -0.4383484074        8.1614184164        2.0205894053
  H         0.6972530559        9.4466484635        1.4268358693
  C        -1.2438308266        9.3719950635        0.3847193191
  C         5.1250468938       16.3849201290       -0.2927508292
  H        -0.8841440000       12.6588772840       10.3308770143
  H        -1.6889116549       12.6876463840       11.9597057781
  C        -2.4229447540       14.2503069618       10.4977865357
  H         3.8760413194       12.6963703194       12.2532364646
  H         3.0729815810       12.3950127838       13.9252503550
  C         4.4804447233       13.9403312759       13.9533408016
  C        -0.0176045311        8.1244758078       15.3954104241
  C        -0.3563899250       10.3054326163       16.3855998674
  H        -1.9863620836        8.5471424784        0.3271859336
  H        -1.8927945720       10.2407119878        0.4442262282
  C        -0.4795519370        9.3472973536       -0.9414734346
  H         5.2315027311       17.3950440882       -0.0616406775
  C         5.5025503567       16.0124271369       -1.5531918366
  H        -2.0690387027       14.8501536054        9.6882267745
  H        -2.6924668445       14.8312698170       11.4326596752
  C        -3.6226716503       13.3337196402       10.2031303744
  H         5.1732605419       14.4970516588       13.3644656471
  H         4.0467427828       14.7893007780       14.4455917328
  C         5.4805322371       13.1281691316       14.8057165262
  N         0.2216293621        7.2182288671       14.3783115401
  C        -0.3048995479        7.5903411941       16.6792295959
  C        -0.6453203573        9.7725287351       17.5744997940
  H        -0.3387475126       11.3311713020       16.3397182859
  H        -1.2689550919        9.3847035556       -1.6611960253
  H         0.1810337933        8.4077715709       -0.8410685415
  H         0.2191350654       10.1744260241       -1.2676209199
  S         5.8225235661       14.4325943766       -2.2041051258
  C         5.7075598024       17.0868827299       -2.5606853144
  H        -3.2842332998       12.4170729963        9.7017619995
  H        -3.9579243841       12.9485812065       11.1276584217
  C        -4.6204113692       14.0597182811        9.3029673292
  H         5.5077827386       12.0481973017       14.3606732623
  H         5.1609762401       13.0600317013       15.8374731074
  C         6.8620178804       13.8141546399       14.7691167233
  S         0.0285047842        5.7498332149       15.1016022201
  N        -0.3203092108        6.1902614532       16.6447215917
  C        -0.6089437664        8.3818473340       17.9047149171
  H        -0.8700041673       10.3001942621       18.5264307180
  C         5.9511742937       15.1842782352       -3.7829684214
  N         5.9777035001       16.5077342112       -3.7440415685
  O         5.4487215287       18.2004071276       -2.2557710570
  H        -5.2129186732       14.8369730169        9.8122645808
  H        -3.9859010805       14.6640271096        8.6374340852
  C        -5.4738724807       13.1128769584        8.5840998769
  H         7.6403626213       13.1845261018       15.3425394916
  H         7.1984649435       13.6637818271       13.7205455015
  C         6.9114754335       15.2691944676       15.2642487658
  C        -1.0388709688        7.7233349171       19.0922500048
  S         6.2925140170       14.3699190451       -5.2840996365
  C         5.8578345760       17.2693526181       -4.9748121246
  H        -5.0765587194       13.1380866320        7.5843346792
  H        -5.2245808871       12.0659755215        8.7921284814
  C        -6.9484966511       13.5688613363        8.7552222801
  H         7.6998313248       15.2170328501       15.9706468466
  H         5.9997588920       15.3960582470       15.8102560714
  C         7.1716384737       16.2666297255       14.1386943412
  H        -0.8543948456        6.6830656972       18.9155063133
  C        -1.4287298836        8.0828000746       20.2522731512
  H         6.6283170138       16.9544278749       -5.8192286517
  H         6.2069121928       18.2943957881       -4.8924947813
  C         4.4660855437       17.4709771528       -5.4212569281
  H        -7.4959304571       13.0668833818        7.8931069775
  H        -7.1117864637       14.6265486539        8.6844363469
  C        -7.6108971726       13.1774545463       10.0840188358
  H         8.1559277000       15.7742579582       13.6579436130
  H         6.3406514062       16.0738401793       13.4093445651
  C         7.2198149607       17.6614352808       14.5873717768
  S        -1.7712128136        9.7409526729       20.7782508726
  C        -1.5782288349        7.0952940636       21.2314764429
  H         3.8505989564       18.1377261558       -4.6755965939
  H         3.8929102961       16.4917598582       -5.5174549174
  H         4.3463853744       17.7662317235       -6.5217234357
  H        -8.7196121792       13.5718404711       10.0889381607
  H        -7.5010373262       12.1347089834       10.2919427964
  H        -7.0841222397       13.6645293225       10.8638484486
  H         8.2565746450       18.0960342991       14.4750369580
  H         6.6526309988       18.2013880099       13.8846846380
  H         6.8798399737       17.9121668995       15.5864332378
  C        -2.2336900769        8.9983796038       22.2684375917
  N        -2.1108829821        7.6480433344       22.2850895048
  O        -1.3745366991        5.9062926039       21.0970558016
  S        -2.9437531841        9.8353328611       23.6646977529
  C        -2.3646062020        6.8505761403       23.4764967417
  H        -2.6937084181        5.8698858376       23.0998356191
  H        -3.2059359829        7.2098938368       24.0474266000
  C        -1.0500179506        6.7568827688       24.3047372351
  H        -0.1963243961        6.8347567643       23.7112767919
  H        -0.9459571909        5.8984355833       24.8191399609
  H        -1.0344924290        7.6251021886       25.0768675379
