352
i =
  H        -3.5856822855       14.3171339062       16.0813590883
  C        -3.1427707809       13.3184115570       16.0316063849
  H        -3.9094618399       12.5401514357       16.3246407747
  C        -1.9780514933       13.2627394280       17.0539240429
  C        -2.6787692430       13.1850530256       14.5793359398
  C        -2.4259630097       13.5968370238       18.5395924220
  H        -1.4572194619       12.3591637034       17.0385971435
  H        -1.2402081697       14.0315551978       16.7482935343
  H        -2.6507847223       12.0855104677       14.3558679524
  H        -3.2754812546       13.6258404928       13.8685323253
  H        -1.6389123724       13.5748845943       14.4831728212
  C        -1.5210792569       13.1155770939       19.7040496193
  H        -3.3979641482       13.1855660299       18.6292565119
  H        -2.6269728577       14.6737224528       18.6066776572
  C        -2.1100584873       13.3676577679       21.0956388138
  H        -1.2487851806       12.0570121386       19.5485305568
  H        -0.5925671651       13.7074538123       19.6869547156
  C        -1.1493324006       12.8553586005       22.1316371442
  H        -2.9981395715       12.7750503705       21.2907211526
  H        -2.4298389661       14.4346202011       21.1916886728
  C         0.0732370528       13.7422574947       22.4647955040
  H        -1.8218537621       12.5027960477       22.9385682143
  H        -0.8275292001       11.8604519860       21.8504627577
  C         1.1655201107       12.9137228069       23.1982850417
  H         0.5591298060       14.1320513209       21.5303985866
  H        -0.0811563372       14.6770757178       23.0218588416
  C         1.5662079216       11.5788342593       22.4320965822
  C         0.7164331631       12.1326239609       24.3453706559
  C         2.4456510367       13.7792056584       23.3137438391
  C         1.3908727309       10.5043040143       23.2796291985
  C         2.0258391064       11.2260777182       21.1766042642
  C         0.8755428138       10.7889024056       24.4894750817
  C         0.3118079372       12.7304613919       25.5852442120
  H         2.6591275525       14.0580889566       22.3265035378
  H         2.2777877968       14.7021324935       23.9318793189
  C         3.6052289075       13.0093184852       24.0094350685
  S         1.7071304395        9.0730077448       22.4727806687
  C         2.2490985479        9.8932843909       21.0658558177
  H         2.3275327826       11.8891849094       20.4449561561
  C         0.5867431510       10.1021290171       25.6192972138
  H         0.2595595141       13.7837945889       25.6923640089
  C        -0.0378229606       11.9888447522       26.7157903567
  H         3.9404279558       12.1493699393       23.5317540204
  H         3.3634637337       12.7446656560       24.9894132433
  C         4.9319275312       13.8185747886       24.2630375093
  C         2.8980496289        9.1519651368       19.9618345621
  C         0.0282304180       10.6359583685       26.8055433157
  H         0.9017951447        8.9820932636       25.6638284233
  C        -0.4709248891       12.3359507905       27.9967832715
  H         5.6814491466       13.3447058791       24.8680776240
  H         4.6351831533       14.7227581057       24.7930388738
  C         5.6827820028       14.1894121001       22.9646532577
  C         2.8719167965        7.7488740689       19.7575859634
  C         3.2816688511        9.9756766442       18.8246629914
  C        -0.2501553154        9.9205759747       28.1614482160
  C        -0.5976538766       11.2541026850       28.8702754447
  S        -0.7860407269       13.8279881299       28.6511943754
  H         6.5495312973       14.8822187681       23.1711142371
  H         5.0009693018       14.7428809134       22.3791241403
  C         6.2265690322       13.0892712264       22.0732552862
  N         2.6000860629        6.7643106434       20.7831322866
  C         2.9876844280        7.2151729136       18.5142897326
  C         3.5066487904        9.3742283336       17.5680299801
  H         3.7710737758       10.8891894305       18.9704184289
  C         0.9450670505        9.1815048584       28.8911312271
  C        -1.5340765014        9.0774624706       27.9609585156
  C        -1.0676040222       11.7015007121       30.1153104694
  C        -1.1438687475       13.1092346540       30.1683809745
  H         7.2072123233       13.3805722351       21.9626264754
  H         6.2237045458       12.1383682047       22.6046131892
  C         5.6489809978       12.9837889610       20.6581657947
  S         2.6147685914        5.2857757609       20.0220434295
  N         2.8490988365        5.8575401687       18.4699292432
  C         3.3270900395        7.9350740647       17.3217805555
  H         3.9426261384        9.9999910394       16.7651897587
  H         1.1520982671        8.2679749541       28.3006064632
  H         0.5614696429        8.8238614465       29.8283710525
  C         2.2864497673        9.9970801325       29.0913381557
  H        -1.4912725815        8.4729035880       27.0154422976
  H        -1.7340986691        8.4014981801       28.8145212279
  C        -2.8626008200        9.9200499934       27.7540357705
  H        -1.2556284171       10.9470784896       30.8308079643
  C        -1.5429773474       13.9236776858       31.3861260450
  H         4.6300977320       13.3381318645       20.5776553071
  H         5.7075991955       11.9420941079       20.3470451915
  C         6.5850176633       13.5829719373       19.6200407169
  C         3.5564614072        7.1952236228       16.1031452178
  H         2.3393232055       10.5231192506       28.1289504831
  H         2.2684742038       10.8081570396       29.8697928633
  C         3.4056976450        9.0326091072       29.5093018841
  H        -2.7772580272       10.8067702108       27.0809832921
  H        -3.1165057163       10.3888197079       28.6833395494
  C        -4.1420688131        9.1612544859       27.3341818065
  C        -1.5697607703       15.2944486187       31.4300928957
  C        -1.8526464484       13.2340881687       32.6896791838
  H         6.1550839118       13.6214905382       18.6669711503
  H         6.8396276774       14.5841977578       19.9415461539
  C         7.8458953995       12.6981108010       19.4633396579
  H         3.4558743469        6.1446217863       16.1543558607
  C         3.7655847757        7.6175420635       14.8212456521
  H         3.8056263508        8.5432957760       28.6222557667
  H         2.9504081287        8.1981073634       30.1269769691
  C         4.5133676981        9.9268781553       30.1230551238
  H        -3.6754753690        8.3689291321       26.6378761227
  H        -4.7733141556        8.6197797047       28.1111792202
  C        -5.1111680681       10.1600257050       26.6737726054
  N        -1.3469777180       16.2029647155       30.3605570330
  C        -1.8502822392       16.0183239125       32.6117294912
  C        -2.1578326617       13.9540495700       33.7999306104
  H        -1.9663457305       12.1279120243       32.7766920476
  H         8.0787187157       12.4778762578       18.4413798674
  H         8.7217363845       13.1866812862       19.9355402526
  H         7.8762945709       11.7489719273       19.9925348696
  S         3.9696215241        9.2323605654       14.3758749669
  C         3.7455939138        6.6032907757       13.7457088937
  H         4.7726812972       10.8028321187       29.4592766379
  H         3.9955266286       10.3427316760       31.0073401482
  C         5.6904860849        9.0512462202       30.5653450987
  H        -4.7335944421       10.8139483237       25.9433540678
  H        -5.5445192537       10.8706866195       27.4114062198
  C        -6.2961955054        9.4380376418       25.9796563628
  S        -1.2735169029       17.7156176533       30.8637065056
  N        -1.7775555115       17.4317616404       32.4299173562
  C        -2.2156587007       15.4295764097       33.8222752738
  H        -2.3164350481       13.4420337322       34.7327537535
  C         4.3162675996        8.6063634692       12.7692731222
  N         4.1829339448        7.2411148296       12.6301019741
  O         3.6975678487        5.3961962424       13.9010859894
  H         6.3830118765        9.6557854418       30.9935945934
  H         6.1258824680        8.5777816457       29.6701134596
  C         5.3844547531        7.9005452048       31.5881487996
  H        -5.8519675817        8.9230876193       25.1004462238
  H        -6.6407246696        8.7349235020       26.7454372331
  C        -7.3562137189       10.3653682056       25.5257967251
  C        -2.4834718556       16.2191930126       34.9908747643
  S         4.7410589134        9.5695650425       11.3537432886
  C         4.3558078557        6.5754209120       11.3378761430
  H         6.2085851365        7.8617145410       32.3190426385
  H         4.3750927092        8.1103689352       32.0268890788
  C         5.3403771729        6.4538385022       30.9798362512
  H        -6.8962730942       11.2287796050       25.0766953981
  H        -7.8162918069       10.8470650073       26.4645740408
  C        -8.4505256109        9.6985826214       24.6770441361
  H        -2.4204960910       17.2552504588       34.7638148352
  C        -3.0033382698       15.8969506880       36.2548390478
  H         5.1259339347        7.1100361322       10.7849146599
  H         4.9384031625        5.6560436725       11.5902006870
  C         3.0122804479        6.4249338610       10.5924351979
  H         4.8697568848        6.4554972965       30.0356950837
  H         4.7787108388        5.8506940747       31.6332770208
  C         6.7384041964        5.9588251997       30.8607896801
  H        -8.6624938663       10.2026537470       23.7444112977
  H        -8.2087754789        8.6404688843       24.4608781503
  C        -9.7555851324        9.6023388491       25.4549232371
  S        -3.4524731572       14.3183762334       36.8530129300
  C        -3.2403768289       17.0100736945       37.2203844861
  H         2.4419661332        5.4751634985       10.7417849015
  H         2.4127901755        7.2848809348       10.8480488625
  H         3.1612202623        6.5022641645        9.5160465667
  H         7.2586310396        6.6674557978       30.1134127878
  H         6.8629035834        5.0219797975       30.4145686359
  H         7.3034378981        5.8926903417       31.7385137251
  H       -10.2389323044       10.6424754312       25.5415707449
  H        -9.7493567356        9.0575221505       26.4670934486
  H       -10.4669447540        9.0623507277       24.7892314734
  C        -4.0726094790       15.1954042390       38.2619324173
  N        -3.8989004891       16.5524680597       38.2807720302
  O        -2.9188217559       18.1944909330       37.0587227085
  S        -4.8048333979       14.4747175687       39.7140475762
  C        -4.0191257687       17.4619012937       39.5144814237
  H        -4.4400323324       18.4254001417       39.3128329752
  H        -4.8029266200       17.0411239930       40.1499871205
  C        -2.8610417897       17.5165767373       40.4551377273
  H        -2.6587108743       16.4786764882       40.7997951272
  H        -2.0348777324       18.1270477288       40.1511335717
  H        -3.1431496635       18.0535135892       41.3422906189
  H         8.1315583679       10.6862012824        3.1531167412
  C         8.7357646024        9.8164880411        3.4984452981
  H         8.0048114269        9.0304970149        3.5842992344
  C         9.3132744114        9.9635298020        4.8975710600
  C         9.7720059055        9.6127103186        2.4350918404
  C         8.2392820968       10.1726389552        5.9965748882
  H         9.8862979014        9.0436156197        5.1401410283
  H        10.0141447961       10.7577107919        4.9975645180
  H         9.7069153081       10.3076615549        1.5925589613
  H         9.8132776965        8.6382625311        1.8838209328
  H        10.8133800675        9.7459829241        2.8960473464
  C         7.6905360662        8.9078584045        6.6206231111
  H         8.7337779599       10.7973486408        6.6813920512
  H         7.4337306867       10.7679567731        5.6038944393
  C         7.0598810996        9.3542944851        7.9458639304
  H         8.4556537442        8.2330188558        6.8702304984
  H         6.9545232864        8.3943288947        5.9631638009
  C         5.7716433728       10.1077476276        7.7398841059
  H         7.8212937417        9.8881838902        8.5362354926
  H         6.8156979097        8.4698250517        8.5249168798
  C         4.5163149978        9.4071529189        7.1377568667
  H         5.4383277560       10.3764586256        8.6912918446
  H         5.9438841267       11.0883856345        7.2911529772
  C         3.3078875274       10.3638020489        6.8862497708
  H         4.2545157352        8.5157610821        7.7182312676
  H         4.7903656434        9.0356155885        6.2280397799
  C         3.6345418301       11.7432251981        6.2670005097
  C         2.7652126030       11.0201683832        8.1648322342
  C         2.1324931554        9.6686130095        6.1161935184
  C         3.2434670322       12.8284946512        7.0085867228
  C         4.3050458755       12.1237712351        5.1355441860
  C         2.7703148813       12.3935399658        8.2335029948
  C         2.2021846077       10.4193201353        9.3092937569
  H         2.5320695996        9.2742441759        5.2300935398
  H         1.8360284287        8.8447164259        6.7333721902
  C         0.8283546859       10.5023079431        5.9103930727
  S         3.6725509261       14.4108486393        6.3144935604
  C         4.2317202747       13.4974998145        4.9275297842
  H         4.6568594241       11.3165649527        4.5197308203
  C         2.2548015535       13.0329127103        9.3513781782
  H         2.3461642783        9.3129168873        9.3123059317
  C         1.7169381092       11.0656072854       10.3844229254
  H         1.1621786341       11.5494596377        5.6514631066
  H         0.2815693579       10.6747586700        6.7690667377
  C        -0.1469480063        9.9252908975        4.8419143665
  C         4.6961517251       14.1859157723        3.6783374190
  C         1.7426508764       12.3751994915       10.4741455243
  H         2.2473168294       14.1201538203        9.4731577616
  C         1.1881136511       10.7091908779       11.6396875309
  H        -1.0704152263       10.3559525612        4.8377709607
  H        -0.5212407755        8.9057232756        5.0743185316
  C         0.4051411433       10.1428171185        3.3868878643
  C         4.7334180457       15.6022108613        3.4061034973
  C         5.0869311819       13.3368099712        2.5449678629
  C         1.3625323104       13.1401362774       11.6992087849
  C         0.9441354322       11.8455088434       12.3918996119
  S         1.0408597456        9.2431050145       12.5428981558
  H         1.3594784550        9.6056119920        3.3463677739
  H         0.4712980220       11.1894711912        3.1954717038
  C        -0.7040605590        9.7719000057        2.4215990501
  N         4.3765160455       16.5765823657        4.3679825423
  C         4.9072010954       16.1779917600        2.1917806300
  C         5.3427420121       13.8459695013        1.2624446559
  H         4.9782701991       12.3041329808        2.6310964886
  C         0.1092090584       13.9479939434       11.4893266869
  C         2.4188578326       14.0169783499       12.4207681801
  C         0.4927565551       11.4706551239       13.6934442263
  C         0.5798612809       10.1007024963       13.9166349760
  H        -1.2155156970        8.8690897515        2.6690858098
  H        -1.4356536854       10.5680456285        2.5087393144
  C        -0.2225367440        9.9108551860        0.9684796336
  S         4.4634435501       17.9877360884        3.6800750241
  N         4.7332842969       17.5557109357        2.2015763287
  C         5.1951696303       15.3332928231        1.0350128547
  H         5.6872808966       13.1939725829        0.5005326422
  H         0.2059939953       14.8177048903       10.9109993816
  H        -0.2365860597       14.2564091314       12.4547407034
  C        -1.0912722646       13.1873255118       10.8608907652
  H         2.8345306892       14.6169451977       11.6384455051
  H         2.0735310906       14.5671423876       13.2697622582
  C         3.5162768487       13.0984164548       12.9925452363
  H         0.2779278541       12.2492654148       14.4018227782
  C         0.3251930307        9.4238543195       15.2413189409
  H         0.6801320332        9.3957737968        0.7860101918
  H         0.0407438575       11.0105740193        0.8350515974
  C        -1.2852945294        9.5380285863       -0.0369425367
  C         5.3911738951       16.0341962696       -0.2339878238
  H        -0.7207724810       12.6811208215        9.9524518670
  H        -1.5188978350       12.4295946423       11.5103757431
  C        -2.2053430222       14.2243388208       10.4157279854
  H         3.7800861844       12.3949788611       12.2208678769
  H         3.0412416977       12.5117688060       13.7701806506
  C         4.7053800060       13.9253295305       13.5739498234
  C         0.2113586568        8.0435962653       15.4763462015
  C         0.1527435699       10.2461982371       16.4706930288
  H        -1.4471129302        8.4694017385       -0.1676757892
  H        -2.1929548682       10.0843313942        0.4415638995
  C        -1.0055685741       10.2354526740       -1.3568205360
  H         5.3469502735       17.1218894556       -0.1676779816
  C         5.7113193852       15.5793892251       -1.4492971687
  H        -1.8516688524       14.9480123017        9.6886501765
  H        -2.5259131129       14.8350683490       11.2727227760
  C        -3.2947180252       13.4682500324        9.8964772922
  H         4.9762727241       14.6136976341       12.7250395434
  H         4.3289734471       14.5217544283       14.4194871075
  C         5.8030624438       13.0443246861       14.1916788654
  N         0.4775488287        7.0758813011       14.5015418091
  C        -0.0214293250        7.4809462512       16.6821747738
  C        -0.0177144406        9.6750851845       17.7448267558
  H         0.2140972951       11.2687700336       16.3316306413
  H        -0.0692851114        9.9684604128       -1.8061068014
  H        -1.0782807549       11.3157602757       -1.1504569794
  H        -1.7828518710        9.8772006641       -2.0500652240
  S         6.0060176804       13.9365919161       -1.8074209355
  C         5.8071414398       16.4797333815       -2.5940761167
  H        -3.7971445827       13.9795478531        9.1041972757
  H        -2.9760347980       12.5259720343        9.4264306756
  C        -4.3474087862       13.1745418629       10.9401600219
  H         6.1603993554       12.3416861470       13.4916837406
  H         5.2361966539       12.4587186722       14.8799493615
  C         6.8511537300       13.8550681312       14.9297307604
  S         0.2687236481        5.6149092368       15.1270755882
  N        -0.1420223673        6.0965852853       16.6487225761
  C        -0.1953020934        8.2228411179       17.8977944825
  H        -0.0277538081       10.3499411562       18.5831535221
  C         6.1666607845       14.4818373263       -3.5052122933
  N         6.0901876488       15.8071663357       -3.7119797587
  O         5.3532095900       17.6397926653       -2.4919613177
  H        -3.9208231035       12.5622265285       11.7717553787
  H        -4.7210246830       14.0597226176       11.4384339928
  C        -5.5193143692       12.3858820417       10.3716335513
  H         6.3515476618       14.3209522820       15.7768464524
  H         7.5826994969       13.1045675698       15.2461137807
  C         7.5927126627       14.9194426817       14.1286374652
  C        -0.4655770626        7.4840449918       19.1006800571
  S         6.7260154573       13.4930310178       -4.7655283879
  C         6.0958662178       16.4773108749       -5.0565121062
  H        -5.2334447326       11.5144467974        9.8319680989
  H        -6.1659303582       12.0028763446       11.1579242023
  C        -6.3802387227       13.1907928140        9.3643211510
  H         7.0496730288       15.3066711453       13.2430635744
  H         8.5632465549       14.3867035204       13.7135710234
  C         7.7625712377       16.1543569920       15.0506142270
  H        -0.0378303884        6.5377680693       19.1114115249
  C        -1.0951736770        7.7921607082       20.2841202600
  H         6.9761483008       16.1241752524       -5.6279214194
  H         6.3523880200       17.4725749642       -4.9964252366
  C         4.7818471128       16.3650163967       -5.7337159844
  H        -6.3906325226       12.6807967626        8.4546133347
  H        -6.0619218151       14.2535147386        9.2108839858
  C        -7.8692762473       13.2222962326        9.7866575069
  H         6.8165910372       16.4896345585       15.3200446528
  H         8.4064116909       15.9639358329       15.9552932003
  C         8.3321392634       17.3689925199       14.3407274940
  S        -1.8809006664        9.3387334883       20.6502018600
  C        -1.1437902016        6.8316878034       21.3732280423
  H         4.9402227879       15.7576872945       -6.6446709181
  H         4.4469916643       17.3349661576       -5.9961869226
  H         3.9764591126       16.0909889608       -5.0581375445
  H        -8.4634762706       13.5977179304        8.9818610129
  H        -8.1953904570       12.2003888826       10.1011317871
  H        -7.9969851114       13.9176075870       10.5942493832
  H         7.8569937219       17.4323159119       13.3505884344
  H         8.0233067257       18.3086465283       14.9041878799
  H         9.4477532573       17.2735884789       14.2430441162
  C        -2.3983845615        8.6223632649       22.1609693643
  N        -1.9117685117        7.3295132753       22.3086481591
  O        -0.4824581687        5.7824188779       21.2935088240
  S        -3.2724382984        9.3673136318       23.5245104807
  C        -2.2049684539        6.4361351170       23.4480053808
  H        -2.4840655850        5.4440407669       23.1927619249
  H        -3.1291006585        6.7792609762       24.0152777728
  C        -1.0712255415        6.4265028019       24.4860119759
  H        -0.7680817996        7.4054357524       24.8567321935
  H        -0.2122783965        5.9647859087       23.9958510607
  H        -1.3920408134        5.6976848979       25.2356444349
