352
i =
  H        -4.1539203020       14.5710423392       16.1393994475
  C        -3.7900306960       13.5640074272       16.1830539295
  H        -4.6243194689       12.9196949726       16.4607847336
  C        -2.7362041705       13.5854265808       17.3526840493
  C        -3.1600930115       13.1324493598       14.9192874745
  C        -3.3208807808       13.6514321212       18.7651463731
  H        -2.1468480101       12.6925969748       17.3891890374
  H        -2.1015622836       14.4737886720       17.1940365446
  H        -3.5666702390       12.2044113910       14.5870344545
  H        -3.2002049386       13.8842153787       14.0941374063
  H        -2.0803152346       13.0095264347       15.0718326573
  C        -2.1662979402       13.5971981812       19.8106820802
  H        -4.0048969118       12.8838830672       18.9676719999
  H        -3.9094341430       14.5157757186       18.7764280359
  C        -2.6480817998       13.4007181448       21.2598705851
  H        -1.4567805770       12.8847110851       19.4766889188
  H        -1.7101746896       14.5941030749       19.7319591691
  C        -1.5500879217       12.8845920720       22.1468646636
  H        -3.4053202920       12.6863396562       21.1919315070
  H        -2.9219591697       14.3452999552       21.7305961909
  C        -0.3958781049       13.8958774364       22.2943095298
  H        -2.0017484858       12.5128829058       23.0498365876
  H        -1.3011861678       11.9706443935       21.6586076284
  C         0.9524002820       13.3845476213       22.9819629581
  H        -0.1135054841       14.2435682848       21.2936071820
  H        -0.7406718797       14.8276233826       22.7604231810
  C         1.3808093311       12.1036618136       22.2472720426
  C         0.6123459531       12.5739981037       24.1859154965
  C         2.0734869702       14.4681015482       23.2027466514
  C         1.1528952427       10.9760834167       22.9818845244
  C         1.9921459400       11.7904501748       21.0227013605
  C         0.7274517996       11.2517166339       24.2425186045
  C         0.2007798335       13.1238905951       25.3510999981
  H         2.3024330999       15.1276803935       22.2944539319
  H         1.7390674139       15.1693102925       23.9747420921
  C         3.3928026650       13.7491404224       23.7673188427
  S         1.5920267950        9.5130928872       22.2300815898
  C         2.1144155233       10.4397883828       20.8923331240
  H         2.1994295452       12.5721554995       20.3628404913
  C         0.3645173124       10.5340256829       25.3594584747
  H         0.1422298622       14.1923692911       25.4590237279
  C        -0.2143959189       12.4384838374       26.4583781786
  H         3.7133905151       12.9813084032       23.0236424418
  H         3.2610486598       13.1113431452       24.6873559016
  C         4.5514877822       14.6832819282       23.9800791660
  C         2.5720796162        9.7292985918       19.6615886515
  C         0.0225739912       11.1338639293       26.5482234365
  H         0.3777802887        9.5400305606       25.1991985587
  C        -0.5427160011       12.8062521677       27.6987631838
  H         5.3158549356       14.1915636341       24.6380639505
  H         4.2551746210       15.5051032579       24.6382209979
  C         5.2024111898       15.2237746064       22.6985931095
  C         2.4942363314        8.3174504671       19.4410207121
  C         3.0760648410       10.5080843565       18.5587556589
  C        -0.2724739065       10.3305541972       27.7917108494
  C        -0.5514325505       11.7325516174       28.5335781334
  S        -0.6952385583       14.3297209651       28.5052729545
  H         5.5541215499       16.2585754116       22.7873398892
  H         4.4950101072       15.1353681498       21.9140360756
  C         6.5623843212       14.5214270971       22.3500458119
  N         2.2205549349        7.3325919963       20.2695167476
  C         2.7139242183        7.7669557291       18.2070165860
  C         3.4267412848        9.8980696422       17.4179491959
  H         3.2781586776       11.5539937219       18.6169561759
  C         0.8426247691        9.5967427723       28.5927282402
  C        -1.6600064214        9.5458102281       27.7228034430
  C        -0.6973631455       12.1559754762       29.8821069094
  C        -0.8918296349       13.5228629610       30.0307709586
  H         7.1803856377       15.1863180182       21.7605893315
  H         7.0838077376       14.3789381877       23.2933002052
  C         6.3727805487       13.2204206711       21.6767394734
  S         1.9868623783        5.8622456719       19.5338262691
  N         2.5113974724        6.4076136652       18.0652237943
  C         3.1545076244        8.4782473481       17.1022876929
  H         3.8233452233       10.4332692437       16.6238683662
  H         1.1528637553        8.7501323144       28.0237356176
  H         0.3525099711        9.2504394047       29.4963167326
  C         2.1105447124       10.4797291910       28.9784976087
  H        -1.5696140494        8.6184117964       27.0459342419
  H        -1.9919504912        9.2230656349       28.7491799858
  C        -2.8685467194       10.3207041150       27.2433960543
  H        -0.6322386992       11.4017395318       30.6478360881
  C        -1.3210774239       14.2778913775       31.3269132130
  H         5.6438468823       12.7027945999       22.2819990571
  H         7.2006464404       12.5461070569       21.6607912181
  C         5.8861002711       13.2385814891       20.2390250845
  C         3.3608526416        7.9182761200       15.8126498316
  H         2.3228571355       11.0165967350       28.0331526454
  H         1.8077078113       11.1064364528       29.7822410238
  C         3.2918606906        9.7082570294       29.6191789768
  H        -2.7718099438       10.7721901667       26.2404762883
  H        -3.1484143531       11.1091963100       27.9379950648
  C        -4.1990295352        9.4926948107       27.3279773156
  C        -1.3283362790       15.7494483337       31.4432295047
  C        -1.7420274958       13.5629897254       32.5377384824
  H         5.6079628456       12.2297844164       19.9877603435
  H         5.0403383817       13.9220707093       20.1912390264
  C         6.9822861250       13.6912473359       19.3207059551
  H         3.3777392651        6.8328823102       15.9441931347
  C         3.6422042045        8.3441265699       14.5599600282
  H         3.8746750059        9.2373754973       28.8395228536
  H         2.7907141824        8.9836670558       30.1942181967
  C         4.1018350168       10.6880344142       30.4973574067
  H        -4.1839777873        8.6629282642       26.5793169851
  H        -4.2856575345        9.0960614544       28.3706305188
  C        -5.4041114244       10.2971527948       27.1738538452
  N        -0.9739606090       16.6137129649       30.4181703602
  C        -1.6833375734       16.4077744246       32.5890444800
  C        -2.0834414601       14.2650895747       33.6871088775
  H        -1.9468665498       12.4675820204       32.4852304639
  H         8.0447037054       13.5220032462       19.6868199287
  H         6.8172222624       13.0966536681       18.4214238526
  H         6.7478346807       14.7174525828       19.1697173346
  S         3.9540926729        9.9372337798       14.0523052164
  C         3.7049885703        7.2779597497       13.5089413513
  H         4.2023927571       11.7119062386       30.0645310746
  H         3.6927147367       10.6901033680       31.5456384586
  C         5.5065568344       10.1860351284       30.6520805204
  H        -5.3814775763       11.3723175093       27.4193701513
  H        -6.1210619144        9.9359871021       27.8149204088
  C        -5.8970753941       10.2086751185       25.7451804636
  S        -1.4206853953       18.1271901955       30.8647934842
  N        -1.7377514547       17.7877258980       32.4541418363
  C        -2.0612279256       15.7459782397       33.7950617051
  H        -2.5005753284       13.7632299383       34.5564203836
  C         4.1562001572        9.1876016075       12.4280706781
  N         4.1355733836        7.8349463414       12.3214735383
  O         3.4838786486        6.0225797195       13.6242186246
  H         6.2073579792       10.9649043950       30.9912895958
  H         5.8265185582       10.0402876580       29.6017301354
  C         5.6366283313        8.9152226301       31.4943184015
  H        -5.1197984450       10.4306536500       25.0644266440
  H        -6.3657587647        9.2583527069       25.4837430202
  C        -7.0501809093       11.2261338355       25.6726663150
  C        -2.3667491260       16.5442723740       34.9762621969
  S         4.4865002362       10.2255109997       11.0317523254
  C         4.1598870280        7.1383027861       11.0360094688
  H         6.1878576146        9.0986311514       32.4318129344
  H         4.7491367653        8.3503172815       31.8107079307
  C         6.5376671538        7.8774317182       30.8291584482
  H        -6.6540803275       12.2000771400       25.2737887326
  H        -7.5103804807       11.3195833533       26.6809838787
  C        -8.1116679673       10.7117801801       24.6663194492
  H        -2.1893918786       17.5840673039       34.8132207093
  C        -2.8530411890       16.2747212144       36.2182967302
  H         4.8993240106        7.6217121307       10.3243275704
  H         4.5925902808        6.1469648614       11.2723778516
  C         2.7311385846        6.9666952393       10.4690160994
  H         7.5511779625        8.3517806708       30.7474522719
  H         6.2143941181        7.7447166620       29.8159052038
  C         6.8080948563        6.5289413757       31.5694058322
  H        -8.4667027350       11.5634733652       24.0911408598
  H        -7.6768795251        9.9702049350       24.0016009032
  C        -9.2626066683       10.0232733052       25.2190976088
  S        -3.3588414430       14.7537467665       36.8853143694
  C        -2.9579382709       17.4286472683       37.1758607847
  H         2.7428193629        6.0194069274        9.8851280502
  H         1.9646113867        7.0411673524       11.1969525574
  H         2.6567979363        7.7585491900        9.6686536500
  H         5.9832119848        5.8157009831       31.3875798548
  H         6.9149675721        6.5927569423       32.6407059383
  H         7.5977899639        6.1245367897       31.0882732360
  H        -9.7516293010       10.7452691938       25.8334698430
  H        -9.0426505504        9.1465611395       25.8556700033
  H        -9.9114420126        9.6643896273       24.4751629720
  C        -3.8867999774       15.5748585376       38.3421328599
  N        -3.5507166263       16.9142890572       38.3195034677
  O        -2.6342930988       18.6079563908       36.8902273475
  S        -4.5994747494       14.8903469369       39.7692164995
  C        -3.7529318885       17.8280659837       39.3841895265
  H        -4.1823288198       18.7645801433       39.0004671390
  H        -4.5025022887       17.3486407725       40.0352629631
  C        -2.4040764786       17.9764139463       40.0890697216
  H        -1.9725067781       17.0402354136       40.4325798194
  H        -1.5608629125       18.4085372325       39.4349836679
  H        -2.5459605062       18.7331528375       40.8620491333
  H         7.0433665252       11.5442049578        2.6957038967
  C         7.7236289200       10.7152008692        2.9274285812
  H         7.1112909222        9.8929225832        3.0675803482
  C         8.6079523559       10.9655001867        4.1989745798
  C         8.5309481042       10.3690616210        1.7243452849
  C         7.7760345102       11.1181783338        5.4359294107
  H         9.3208810584       10.1504270695        4.2634357181
  H         9.2190846843       11.8638817705        4.1744842710
  H         9.2316294501       11.1645495498        1.4917558033
  H         7.9182956966       10.1134725320        0.8988100926
  H         9.1609809345        9.4959243942        1.9480958410
  C         7.1058831183        9.8441784950        5.8985818303
  H         8.4658297049       11.5058138158        6.2637410747
  H         6.9370620263       11.8279276655        5.2010138326
  C         6.4823742307        9.7510794892        7.3234810416
  H         7.6208476921        8.9399766286        5.7815111167
  H         6.3167457319        9.6701488383        5.1586420286
  C         5.2494019797       10.6603211935        7.4373830512
  H         7.1606777125        9.9556244590        8.1410323565
  H         6.2121247382        8.7160310935        7.4844701918
  C         4.0235942107        9.9353529825        6.8249542838
  H         4.9497426073       10.8857142570        8.4391936781
  H         5.5689630141       11.6255834949        7.0578539758
  C         2.7536053592       10.8196005877        6.7559379818
  H         3.7069076367        9.0698140239        7.4003313910
  H         4.2955730302        9.7430669351        5.8077746615
  C         3.2043617993       12.1126369712        6.0797059815
  C         2.2422751231       11.5556492664        7.9507711561
  C         1.6355547419       10.0838164176        5.9916944065
  C         2.9162690985       13.2376424858        6.8197704341
  C         3.7994098908       12.4935579701        4.8463542831
  C         2.3958646315       12.8790729236        8.0592691334
  C         1.7348273110       10.9605093376        9.1156879097
  H         1.9969532100        9.6649000246        5.0655303581
  H         1.4000075269        9.2179165200        6.5789565074
  C         0.3324972774       10.9314776078        5.5675624136
  S         3.3166354942       14.7109725748        6.1238118535
  C         3.8678966926       13.8613193700        4.7543797632
  H         4.0438188832       11.7831129896        4.0973282761
  C         1.9846873414       13.5326336413        9.2076718015
  H         1.6712724109        9.9238218755        9.0861587319
  C         1.4163421305       11.5665193893       10.2684173995
  H         0.5458317409       12.0262941011        5.3244631976
  H        -0.2449900376       10.8787696291        6.4373478733
  C        -0.5714757484       10.2859260317        4.4679823030
  C         4.3785171305       14.5638282194        3.6140977587
  C         1.5396054621       12.9333586486       10.3974627604
  H         2.2493188638       14.6007969267        9.1107883820
  C         1.0865087734       11.1432293810       11.5710153595
  H        -1.5273259386       10.8055149134        4.4673283633
  H        -0.7880417999        9.2697900176        4.6875694594
  C         0.1496981124       10.2065498592        3.1302014713
  C         4.3011942460       15.9521011737        3.3331388190
  C         4.9236373782       13.8009339045        2.4622218515
  C         1.2077669393       13.6159771602       11.7639763840
  C         0.9380638164       12.2715830026       12.4183721322
  S         0.7269688493        9.6213665348       12.2917137262
  H         0.7942687068        9.2918071706        3.0005972609
  H         0.8550070324       11.0322888750        3.0637209928
  C        -0.8143853936       10.0920766837        1.9506470842
  N         4.0213382798       16.9487147667        4.2817794645
  C         4.4959736092       16.4990803465        2.0707182498
  C         5.1732861365       14.3166991702        1.1805494817
  H         5.2726505614       12.8117830058        2.6329579141
  C        -0.1238207769       14.4004093416       11.6388688607
  C         2.2208033664       14.4404642846       12.4340030091
  C         0.5097342734       11.8420790183       13.7096884241
  C         0.3754629249       10.4767986661       13.7324732539
  H        -1.5258709115        9.2887747855        2.1784788266
  H        -1.4111795023       10.9502371363        1.8132253858
  C        -0.1488176865        9.6979040531        0.6520680511
  S         4.0311500075       18.4019820250        3.4825417820
  N         4.3309928889       17.8651688187        2.0166811730
  C         4.8958732247       15.7185526792        0.9473621180
  H         5.4136610985       13.5715553668        0.4305582973
  H         0.0000766257       15.2791690468       10.9658612164
  H        -0.4509146901       14.8074786813       12.6346615225
  C        -1.3260369919       13.7029088953       11.1345313361
  H         2.4616819703       15.3455792895       11.8307467410
  H         1.7842291173       14.8896048731       13.3299617742
  C         3.5073644120       13.6874203421       12.8517959871
  H         0.4092573976       12.5326717806       14.5083442049
  C         0.0676424130        9.6516473755       14.9673321191
  H        -0.3936367247        8.6536161195        0.4486942426
  H         0.9180214151        9.7024753209        0.7893746292
  C        -0.5574201441       10.5267905445       -0.5930523522
  C         5.1340358998       16.4864648039       -0.2400257394
  H        -1.1380965162       13.1271779307       10.2180223477
  H        -1.5643540510       12.8608543030       11.8413825375
  C        -2.5824354076       14.4721304170       10.7471085422
  H         3.7193375090       13.0704557298       11.9644031898
  H         3.3653838178       13.0122546655       13.7306316737
  C         4.6136470648       14.7121304449       13.1900445829
  C         0.1163309122        8.2176248156       15.1617338816
  C        -0.3742831452       10.3656548585       16.1700387676
  H        -0.3986494082       11.6111910078       -0.2112296342
  H        -0.0072830322       10.4578465507       -1.5047929734
  C        -2.0218233489       10.3860160544       -0.9827696339
  H         4.8394610004       17.5319758943       -0.2086287900
  C         5.3719830498       16.0589513851       -1.5317629894
  H        -2.4585697608       15.1578725128        9.9675989206
  H        -2.8516248885       14.9955550733       11.6326316471
  C        -3.6851907517       13.5579723774       10.2819493389
  H         5.0488269855       15.2293849319       12.3597653296
  H         4.2397241078       15.4321850392       13.8513131944
  C         5.8258436573       14.0783893900       13.8682848724
  N         0.4576657798        7.3563826792       14.1553947975
  C        -0.2156336345        7.6129225814       16.3396907316
  C        -0.7753372429        9.7286490101       17.3218198437
  H        -0.6132701385       11.4489099523       16.0918341288
  H        -2.6554617788       10.5766698372       -0.1060024357
  H        -2.2850421513        9.3693055815       -1.3267938739
  H        -2.3577595383       11.1186790561       -1.7059569710
  S         5.6431479191       14.3841526559       -2.0884374949
  C         5.4424048887       17.1277059149       -2.5380315215
  H        -3.1693881207       12.7911017759        9.7051260399
  H        -4.2715371460       13.1495262460       11.1705149482
  C        -4.7841260498       14.2972121596        9.4786394538
  H         6.5504945681       13.5746402680       13.1911729314
  H         5.4953098061       13.2423065171       14.4321510006
  C         6.5220036978       15.0711900804       14.8604652350
  S         0.2968648013        5.8674886089       14.6772134348
  N        -0.1427661239        6.2296824967       16.2258502432
  C        -0.7076543054        8.2519334673       17.5336767908
  H        -1.0786988686       10.3780984984       18.1393403598
  C         5.9334924905       15.1716769583       -3.6451440782
  N         5.8685012889       16.4988535230       -3.6559015701
  O         5.3652528030       18.3069438517       -2.3145978229
  H        -5.4326303370       14.6950332373       10.2694307244
  H        -4.3647702135       15.1076869517        8.8045147700
  C        -5.7075835150       13.3831146198        8.6797026430
  H         5.6825714629       15.3091563771       15.4088733323
  H         7.2481989638       14.3666535464       15.4279855277
  C         7.2547866409       16.2585926542       14.2907082585
  C        -0.9445828822        7.3365040560       18.6595359208
  S         6.2346860142       14.3395120019       -5.1180145471
  C         5.8571692732       17.2991171421       -4.8746092918
  H        -5.1309802543       13.2117246929        7.7318376207
  H        -5.7878781620       12.4182862627        9.2353297399
  C        -7.1794672774       13.9222237856        8.3881704899
  H         6.8715717267       16.7735946209       13.4231604992
  H         8.1498123195       15.7960559188       13.9735452732
  C         7.6965354406       17.2335713637       15.4135193597
  H        -0.4515755573        6.3686746706       18.6624325104
  C        -1.3708810413        7.6569270321       19.9093957002
  H         6.4237976375       16.9955350605       -5.6750005949
  H         6.0153941324       18.4271029462       -4.7489491425
  C         4.3657810452       17.3346882134       -5.2697096044
  H        -7.6383783312       13.2737420206        7.6729251168
  H        -7.2327401105       14.9333585758        7.9354029186
  C        -8.0273720793       14.0191374826        9.6444148901
  H         7.2617257954       17.0213207210       16.3988284271
  H         8.7820785078       16.9808797742       15.5759968901
  C         7.5046525278       18.7286460625       15.1193852461
  S        -1.9312761474        9.1760133969       20.3868765614
  C        -1.2631781773        6.6357479293       21.0360623947
  H         3.6221369564       17.5780472606       -4.4607856463
  H         4.1783010403       16.3853541781       -5.6896987464
  H         4.0989623454       18.1602537692       -6.0193969306
  H        -7.3982090352       13.9817180020       10.4765068337
  H        -8.5461229729       14.9419920413        9.5975541987
  H        -8.6402360800       13.2019632073        9.8873520729
  H         7.6603634807       18.9086925053       14.0879465945
  H         6.4397630485       18.8435474929       15.3477909568
  H         8.1639767984       19.3377115763       15.6778378143
  C        -2.1385203030        8.4530198176       22.0104408407
  N        -1.9248756295        7.1307976253       22.0802490611
  O        -0.9899058983        5.4812633772       20.8569414342
  S        -2.8392166925        9.2924129608       23.3864190776
  C        -1.8912046060        6.3118990808       23.3700492995
  H        -2.1011960158        5.2401799181       23.0802768492
  H        -2.7839770311        6.4832612910       24.0148733412
  C        -0.6269532612        6.5146714531       24.1879612584
  H         0.2434307799        6.8973405996       23.6076988313
  H        -0.4455626195        5.5133421305       24.5611570698
  H        -0.8570095918        7.2625018780       24.9442520325
