352
i =
  H        -4.3215929295       14.2428558588       16.2834899866
  C        -3.7183721625       13.3225206015       16.2882892485
  H        -4.2343686310       12.4485269301       16.6838338474
  C        -2.5110833190       13.5442433734       17.2596316161
  C        -3.1679040994       13.1093089530       14.8370484350
  C        -3.1434411752       13.8176808473       18.7423391982
  H        -1.9430387507       12.6128571306       17.2748938708
  H        -1.7706645810       14.3593199797       17.0688664396
  H        -3.9554503066       13.0505338440       14.0450433350
  H        -2.5964413457       13.9895621859       14.5468249633
  H        -2.5641155457       12.1688263953       14.9178919833
  C        -2.0852867185       13.8448505484       19.7598035680
  H        -3.7979747026       12.9835731504       18.8867361350
  H        -3.8006092686       14.6970398052       18.6828095375
  C        -2.4298445615       13.4912699911       21.3006934795
  H        -1.0671619702       13.2917435596       19.4390456327
  H        -1.6055592318       14.8690132107       19.7859463378
  C        -1.3455985576       12.9643577187       22.0952496792
  H        -3.2999638449       12.8713094816       21.3070926216
  H        -2.7530453466       14.5371232019       21.6333621647
  C        -0.2026758486       13.9128658649       22.3655932505
  H        -1.8412923955       12.9038785229       23.0222038994
  H        -1.0404025905       11.9981499369       21.6145717910
  C         0.9924226345       13.2107939368       23.0636877706
  H         0.0226058669       14.6650328154       21.5926616110
  H        -0.5109758252       14.5984699747       23.1821651803
  C         1.3530216233       11.8196065845       22.2958637180
  C         0.5445315000       12.5070545544       24.4050856763
  C         2.2839906936       14.0507083036       23.2211812130
  C         1.1809414888       10.7312797526       23.1867964672
  C         1.8101265439       11.3616489580       21.0412901550
  C         0.6370318211       11.1819274026       24.4038292799
  C         0.1976499276       13.0371747845       25.6373742556
  H         2.6392435919       14.4067206493       22.2400233042
  H         2.1449803684       14.8648496924       23.9884268506
  C         3.5253232404       13.1481436541       23.8028051026
  S         1.5099133290        9.1876625939       22.5320905708
  C         1.9525609244       10.0156940289       21.1214185730
  H         1.9120730063       12.1841974871       20.3302784193
  C         0.2868081256       10.4920905022       25.5387847886
  H         0.2479997575       14.1535655743       25.7733120861
  C        -0.1739224621       12.3669528548       26.7698220465
  H         3.6861241843       12.3194352448       23.0947324903
  H         3.1569345086       12.6790005085       24.7716358829
  C         4.8440093070       13.9377447889       23.9888730900
  C         2.5176126529        9.3353062132       19.9335993517
  C        -0.1723958237       11.0456725010       26.7152302176
  H         0.3814362105        9.4227024807       25.5264710827
  C        -0.6057057249       12.7313840628       28.0377056630
  H         5.4890707312       13.4400075166       24.7648168753
  H         4.6420448827       15.0602476009       24.2313328953
  C         5.6436896936       13.9953762333       22.6471093070
  C         2.3602514395        7.8701864160       19.6725054736
  C         3.0808853034       10.0915269221       18.8413514385
  C        -0.7026876388       10.3057341056       27.9044564391
  C        -0.9130779169       11.5994689996       28.7663345622
  S        -0.8824886082       14.2584183414       28.7639367841
  H         6.3759584588       14.8291985674       22.6502937234
  H         5.0177584871       14.4872414781       21.8662846813
  C         6.4232710449       12.7959663427       22.1589036729
  N         1.8919785857        7.0073510528       20.6060699802
  C         2.7325969992        7.2188592330       18.5231157569
  C         3.4241605137        9.3687310960       17.5915547003
  H         3.3994430133       11.0670017859       18.9101150388
  C         0.4954429243        9.4527562588       28.5044249014
  C        -1.9861003815        9.4993779497       27.6655970756
  C        -1.5389722458       11.9546512852       30.0016496420
  C        -1.3930191917       13.3379376238       30.1586673477
  H         7.2152657570       12.4774334572       22.9267176873
  H         5.6022537369       12.0063340838       21.9393974867
  C         7.1946531421       13.0535883962       20.8608666864
  S         2.1507850416        5.4950602264       20.0297031766
  N         2.6828842329        5.9052049177       18.5113247534
  C         3.1424586285        7.9433377650       17.3423778321
  H         3.9824335707        9.8936051116       16.8717666768
  H         1.0735871404        8.8182754739       27.6619808883
  H        -0.0832389769        8.7725941153       29.2039167042
  C         1.5070854663       10.3261022728       29.3688832714
  H        -1.7426062867        8.8278491088       26.8054263497
  H        -2.1790893736        8.7598311703       28.4447001650
  C        -3.1702160113       10.3023098683       27.3081177785
  H        -1.9247743355       11.1910283286       30.7483555803
  C        -1.5943219370       14.1130926498       31.4299411830
  H         8.1004477302       12.5139704925       20.8794104952
  H         7.6326019379       14.1086197227       20.7104217580
  C         6.2747871033       12.8059518835       19.6574511396
  C         3.3535214703        7.1903899989       16.1649512768
  H         1.8890938874       11.0904349640       28.6250206162
  H         1.1035703267       11.0200819699       30.1110909546
  C         2.5255710828        9.4166210481       29.9167068944
  H        -2.9967905321       10.9887707983       26.4617827445
  H        -3.4168215447       10.8919864972       28.2053125607
  C        -4.4949046694        9.4714635399       27.1373552120
  C        -1.7236116598       15.5348628028       31.6281021937
  C        -1.7618188068       13.3199358293       32.7234759446
  H         5.7777778376       11.8160976232       19.7209359019
  H         5.4662935378       13.6136562124       19.4859196946
  C         6.9548868381       13.0618595445       18.2767000191
  H         3.3901938121        6.1572421738       16.2011779627
  C         3.6260329548        7.6712436318       14.8977618279
  H         3.0618900121        8.7392444667       29.1681807019
  H         2.1524442029        8.8152273517       30.7531475782
  C         3.6876676520       10.2518527296       30.5759658916
  H        -4.4946935856        8.4834518734       26.5843604645
  H        -5.0599793791        9.0534494031       28.0928544749
  C        -5.4704969189       10.4540235045       26.5923612171
  N        -1.4230839389       16.5181818671       30.7136459266
  C        -1.9750828945       16.1293640688       32.8187104556
  C        -2.1085905761       14.0936924393       33.9579412846
  H        -1.5824878672       12.2954015625       32.6784832190
  H         6.1544003853       13.2202779377       17.5723144314
  H         7.3263928066       14.1093531765       18.3402294514
  H         7.8811036480       12.3426300107       18.1438080106
  S         3.9713284715        9.1915970185       14.2895589837
  C         3.5373616545        6.6525163415       13.8031392383
  H         3.6090202768       11.1256292704       30.0171294163
  H         3.5856408537       10.4010029242       31.6023727787
  C         5.0129247760        9.6265799143       30.2298314098
  H        -5.0829334209       10.8441646888       25.6640649359
  H        -5.4817977861       11.2873109092       27.3669833754
  C        -6.8819020642        9.9200381350       26.4928305498
  S        -1.5997647487       17.9476804613       31.3402607006
  N        -2.1946605077       17.4900005563       32.7560334313
  C        -2.2203012494       15.4966169070       34.0604189748
  H        -2.0179786276       13.7076679140       34.8306368552
  C         4.1660581096        8.5711403238       12.6754159403
  N         3.8654306984        7.2521839836       12.5989027135
  O         3.1920284515        5.4846573369       13.9370689256
  H         5.8737259190       10.1469343544       30.4794133413
  H         4.9764620909        9.6555421679       29.1283730975
  C         5.2832106341        8.1346829146       30.9165728297
  H        -6.8395104561        8.8597133347       26.1951631167
  H        -7.3260746138        9.8232638741       27.4400284681
  C        -7.6214450771       10.7451841318       25.4571595593
  C        -2.5334069644       16.2489414644       35.2473326162
  S         4.5499325911        9.6311458136       11.3209273029
  C         3.7814140596        6.5337380246       11.3394337445
  H         5.8945252530        8.3010234313       31.8741899932
  H         4.1932272037        7.7890194445       31.2069330636
  C         6.0082168257        7.1829728506       30.0592356557
  H        -7.0182935428       11.1083868767       24.6264819739
  H        -8.0931543196       11.6957848539       25.8517659776
  C        -8.6806394439        9.8931574236       24.8255991277
  H        -2.1570801566       17.2328660238       35.2616994711
  C        -3.0693763549       15.9395980253       36.4550678928
  H         4.5377760292        7.0716270538       10.6784981342
  H         3.9538268988        5.4582723175       11.6521444699
  C         2.3916465635        6.6696709947       10.7407079074
  H         7.1102865455        7.1791634061       30.0370416318
  H         5.7873696597        7.0847529971       28.9527500677
  C         5.6867587178        5.6650648436       30.6473370777
  H        -9.2304860091       10.3088943058       23.8346245311
  H        -8.3751321606        8.8454212135       24.6531033928
  C        -9.9663108719        9.8507956569       25.7802332567
  S        -3.5182950898       14.3904206168       36.9861219293
  C        -3.1938839830       16.9931252220       37.4347725896
  H         1.6459328346        6.8751353026       11.4265924692
  H         2.2207144397        7.3302975026        9.9557350558
  H         2.0665751377        5.7212495693       10.3540842036
  H         4.9721367685        5.1347919117       30.0851166618
  H         5.2985579959        5.7571533064       31.6027564615
  H         6.5177695204        5.0001812671       30.6387954977
  H        -9.7002603435        9.2817452118       26.5879550795
  H       -10.9543098833        9.5934449870       25.3472482463
  H       -10.1596057362       10.7794702338       26.2485471237
  C        -3.7202179902       15.0068706364       38.5215629546
  N        -3.6335802249       16.3566278534       38.6264104427
  O        -2.8767823089       18.1839360197       37.4192119684
  S        -4.0770901039       14.1364449551       39.9515160924
  C        -3.6246066386       17.1209934904       39.8766987188
  H        -3.9611803879       18.1788251879       39.7909368724
  H        -4.3872547575       16.7704829943       40.6200351886
  C        -2.2942686369       17.2223514107       40.6143496598
  H        -1.9732669503       16.3216977193       41.1545579778
  H        -1.4019063686       17.6868843305       40.0423885930
  H        -2.4389896988       17.8423892532       41.3918334808
  H         7.3113661211       11.5060842085        3.2013569795
  C         7.7340370490       10.5062630134        3.2466717122
  H         6.7839420642       10.0039730110        3.1951786658
  C         8.6830251761       10.2972415537        4.4401457542
  C         8.4232489163       10.1554986410        1.8678709848
  C         8.0273986962       10.5958727909        5.7958062267
  H         9.1026539675        9.2870103425        4.4448623892
  H         9.5889858142       10.8720272553        4.4911915863
  H         7.9079512476       10.5441992026        1.0420284798
  H         8.7338689024        9.0967954490        1.7434639422
  H         9.2789511738       10.8120456752        1.8987505106
  C         7.3908395793        9.3714120027        6.4372079982
  H         8.6811310367       11.2314357286        6.3683861935
  H         7.3639279454       11.4149203914        5.5082294983
  C         6.5425144035        9.6127246076        7.7649204824
  H         8.0626049012        8.6853896427        6.8301718463
  H         6.7059024802        8.8896931193        5.7471409891
  C         5.1832774923       10.3621865816        7.5467802391
  H         7.0776323172       10.1283409769        8.5943932144
  H         6.4848396526        8.5517771947        8.1897763216
  C         3.9197874164        9.5639534073        7.1360746415
  H         5.2531348201       10.9603700777        8.4433555387
  H         5.4365973339       10.9944215905        6.6175843049
  C         2.6789550542       10.5552978677        6.8760619744
  H         3.5096821283        8.8064294890        7.9884047095
  H         4.0209852587        9.1582749909        6.1649010888
  C         3.0137164429       11.8604550687        6.1956706693
  C         2.2701842033       11.2584710906        8.1414877719
  C         1.5622008403        9.9472198192        6.0179952180
  C         2.8682019462       12.9707777342        6.9844112378
  C         3.6253304966       12.2240931757        5.0403631275
  C         2.4079607202       12.5787525173        8.2138554426
  C         1.7287216675       10.6298955952        9.2582173019
  H         1.9824420215        9.5184785889        5.1223118137
  H         1.4354507096        8.9955734497        6.5169398332
  C         0.2608106199       10.5787227362        5.8289527138
  S         3.2813037786       14.4909910685        6.3105556789
  C         3.7891000395       13.5349104274        4.9333746415
  H         3.6671831615       11.4106048724        4.2554446492
  C         2.0377054181       13.1770179285        9.3832834811
  H         1.5569938649        9.4913659400        9.2816904176
  C         1.4307812176       11.2091764604       10.4610766574
  H         0.2380182684       11.6310956852        5.8352909641
  H        -0.3679843689       10.2684560581        6.6809790839
  C        -0.4627437663       10.0885161966        4.5109437787
  C         4.2858156024       14.2301275346        3.7508858046
  C         1.5323555967       12.5559665901       10.5317652505
  H         2.1754190842       14.2750743542        9.3813055873
  C         1.0671781931       10.8130128661       11.7108325224
  H        -1.6197837096       10.3246156811        4.5969625595
  H        -0.2757657018        8.9813289690        4.6253360292
  C         0.0586661892       10.7062034615        3.2644717515
  C         4.3124258228       15.6805702059        3.5059308131
  C         4.7339987093       13.4656394295        2.5203984878
  C         1.1938001269       13.2342692451       11.7665938184
  C         1.0191269200       11.9013543313       12.5650205745
  S         0.7922600801        9.3025281812       12.3962605136
  H         0.9123833416       11.2477088913        3.3529052333
  H        -0.6930346343       11.3981074031        2.9422496902
  C        -0.0207915611        9.6896780189        2.1669119233
  N         3.8773573100       16.6412391175        4.4585277227
  C         4.5439497594       16.2874363865        2.2853000486
  C         5.1444994315       14.1051738852        1.3407978373
  H         4.9482045816       12.3707219590        2.5687165737
  C        -0.1429652084       13.9457152665       11.5463171556
  C         2.2227371327       14.1112500864       12.4354436803
  C         0.7241579252       11.4178314902       13.8622241342
  C         0.5682180636       10.1045073586       13.9757048862
  H         0.5328529646        8.8614269199        2.4736073759
  H        -0.9947560179        9.3718191341        2.0516057138
  C         0.3511624697       10.1926002168        0.7261123927
  S         3.8043397288       18.0510350642        3.6573889694
  N         4.3189306880       17.6116308853        2.2083543904
  C         5.0050975964       15.5416035194        1.1762805603
  H         5.4618176681       13.5306892018        0.6044605501
  H         0.0100147248       14.5783710924       10.7566877947
  H        -0.2370117088       14.5836548258       12.4418617986
  C        -1.3586647333       13.0545802300       11.3875636980
  H         2.6213068446       14.8250726652       11.6444392966
  H         1.7907717798       14.6917812466       13.1564947624
  C         3.4873858048       13.3649228011       13.0386430765
  H         0.7045416763       12.2295612313       14.7044362541
  C         0.2856849174        9.3856380538       15.2709345902
  H         1.4046912873       10.0311189377        0.5883973467
  H         0.2979734105       11.1819182536        0.7506850265
  C        -0.5217847200        9.6229601621       -0.2964713517
  C         5.2044998514       16.2219021373       -0.0590846328
  H        -1.0921865801       12.0275665315       10.9397657838
  H        -1.5902575800       12.8222987773       12.4247507718
  C        -2.6100500389       13.8465710172       10.8710077144
  H         3.8959616131       12.5979247679       12.2924602145
  H         3.2535222381       12.8155569287       13.9657098460
  C         4.6208118681       14.2519190227       13.3481365840
  C         0.0930106093        7.9400033232       15.4954886451
  C        -0.1750188211       10.1601643918       16.4713885090
  H         0.0774339032        9.0157099135       -0.9991343365
  H        -1.2606896543        8.8625036910        0.0627759299
  C        -1.4431717010       10.6202096430       -1.1165855133
  H         5.0244311601       17.1953030297        0.0878321732
  C         5.4472721216       15.7616817475       -1.4043154410
  H        -2.1986734200       14.4481032949       10.0339997648
  H        -2.9604866907       14.4746036029       11.6770202750
  C        -3.6511507437       12.9638641562       10.1637129873
  H         4.9745160866       14.9260675194       12.5410345257
  H         4.2308013118       14.9524649906       14.1700626334
  C         5.8108196982       13.4803741150       14.0100183834
  N         0.3068778721        7.1231022117       14.4851913336
  C        -0.2981708941        7.3694955199       16.6289686456
  C        -0.5385917939        9.5451392754       17.7119776984
  H         0.0233590469       11.2164747164       16.5258761532
  H        -1.8850128972       11.2821268545       -0.3269534850
  H        -2.2257380903        9.9622579643       -1.6042382684
  H        -0.9600670418       11.0837825024       -2.0162750220
  S         5.6769088926       14.1590050950       -1.9059246919
  C         5.3192288920       16.7432797297       -2.4682318147
  H        -3.0577235425       12.5368672285        9.3513363897
  H        -4.1440246489       12.3346257308       10.8668031190
  C        -4.6263568628       13.8475774167        9.3589481539
  H         5.8799920020       12.4446991558       13.5798818011
  H         5.5635829996       13.4675294427       15.0190586626
  C         7.0735132919       14.1788655055       13.8405717030
  S         0.2100063740        5.5931246398       15.1466834747
  N        -0.1711672109        6.0125615181       16.6128149799
  C        -0.5058692288        8.1185786916       17.8222781392
  H        -0.8603818880       10.1141601832       18.4693624150
  C         5.8395078012       14.8451014354       -3.4236720664
  N         5.7477844293       16.1968085654       -3.5511312692
  O         5.0670847389       17.9283450414       -2.2738801149
  H        -4.9725214826       14.7134302519       10.1508903344
  H        -4.0819200380       14.4926099753        8.6299730511
  C        -5.8935442422       13.1005566897        8.7625039412
  H         7.7520318004       13.4029894649       14.1187321545
  H         7.2707921673       14.4210425287       12.7605154595
  C         7.3689048790       15.4842497914       14.5794268440
  C        -0.9950567054        7.4265585692       18.9680915115
  S         6.2477133392       13.8489910296       -4.8692218287
  C         5.7926020261       16.7742804154       -4.8367245370
  H        -5.4803961628       12.8775312054        7.7074686639
  H        -5.9590469644       12.1725163348        9.3707207838
  C        -7.1361436356       13.9519603984        8.9006780624
  H         7.8626162015       15.4006913093       15.5565320286
  H         6.3687560620       15.9441537678       14.7136319119
  C         8.1735453635       16.5143048064       13.7226574460
  H        -0.9422135295        6.3361705061       18.8878794936
  C        -1.5975116312        7.8641120878       20.1350111272
  H         6.4017552539       16.2769435711       -5.5811441981
  H         6.2342155862       17.6355658302       -4.8781247538
  C         4.3934000814       16.7204833790       -5.5437759658
  H        -7.9396383037       13.7795532393        8.1497227814
  H        -6.7876392077       15.0770985959        8.7951743410
  C        -7.9362670338       13.5604337808       10.1922025234
  H         9.1723859203       15.9857376214       13.4035813659
  H         7.6814425624       16.7599605199       12.7982455398
  C         8.5087966760       17.7259309978       14.6677307177
  S        -2.2148664465        9.4624799902       20.4872865801
  C        -1.7921631437        6.9074769385       21.2737379308
  H         3.6624773620       16.5782567053       -4.7485385098
  H         4.4022122404       15.9904337762       -6.3990464855
  H         4.2779418805       17.7122345514       -6.0273602674
  H        -7.7000502137       14.2177803806       11.1302972887
  H        -8.9970297856       13.5649990562       10.0041684128
  H        -7.6555447806       12.5842831714       10.3996390865
  H         8.9647069484       17.5150552128       15.6080925077
  H         9.1096839656       18.3125791475       14.1309619810
  H         7.6569324174       18.2073639662       15.0852419244
  C        -2.6579864411        8.8626952595       22.0116930012
  N        -2.2811966515        7.6028712033       22.3015792181
  O        -1.3042251230        5.7714478252       21.2994363653
  S        -3.3656510837        9.7195007768       23.4241994915
  C        -2.4159578948        6.8485932731       23.6222079643
  H        -3.0333668276        5.9565246598       23.4727789674
  H        -2.9794542101        7.3414273050       24.3830535613
  C        -1.1013707999        6.3695545983       24.2879977229
  H        -0.7224090260        5.3116273654       24.0355584662
  H        -1.2077188861        6.3863003884       25.3306265014
  H        -0.3352812490        7.2168925754       24.0135974959
