352
i =
  H        -4.0206217253       13.3857254305       16.5230087180
  C        -2.9514853842       13.8110495561       16.7039137188
  H        -2.2278569743       13.0683001240       16.9747375216
  C        -3.1205939067       14.8548675356       17.8033847811
  C        -2.4690693069       14.3762073278       15.3819283019
  C        -3.3948791463       14.2512015704       19.1865053420
  H        -2.2729149407       15.5823953481       17.9241097699
  H        -3.8799636256       15.4858978187       17.3620557230
  H        -2.6620483859       13.7155706117       14.5140633397
  H        -2.8176693842       15.3609733602       15.2297343829
  H        -1.3620168973       14.4496030891       15.3984156155
  C        -2.0867881618       13.8087432793       19.8139713354
  H        -4.1523711474       13.4727139772       19.3304522627
  H        -3.8017937174       15.0875414248       19.8017347526
  C        -2.1148233404       13.6419557391       21.2888086366
  H        -1.6924160182       12.8979772506       19.4421443711
  H        -1.3459807799       14.5470376073       19.4838411363
  C        -0.9762308403       12.8688669011       21.9461378934
  H        -3.0900227984       13.1140821788       21.5413815621
  H        -2.2739510692       14.6135882021       21.7370904345
  C         0.0941776407       13.8383318637       22.6079914324
  H        -1.5225006504       12.2602056259       22.6646468974
  H        -0.5764106585       12.1178317784       21.2700631684
  C         1.2776770191       13.2617211792       23.2832456875
  H         0.4828096718       14.4129016584       21.8443598139
  H        -0.4099116369       14.6298051401       23.2248964785
  C         1.6748467098       11.9633565653       22.5279375615
  C         0.8996062482       12.5600069869       24.4990055649
  C         2.4689715117       14.1841466506       23.4574801868
  C         1.4350299973       10.8580287843       23.3201091872
  C         2.1628225786       11.6223396273       21.2766024529
  C         0.8719565680       11.1944643598       24.5390418334
  C         0.3423299244       13.1218241859       25.7157763429
  H         2.3801340139       14.7831063506       22.5401165300
  H         2.2602488195       14.9186530672       24.3092403663
  C         3.8275375274       13.5131752455       23.6607180020
  S         1.6758987528        9.3645162840       22.5714920163
  C         2.2896332699       10.2407813048       21.1520431763
  H         2.5038319562       12.4682937209       20.6198714476
  C         0.4686195131       10.5629496545       25.6651583891
  H         0.4395850679       14.1682642690       25.8828756612
  C        -0.2734841425       12.4347979668       26.7024769591
  H         4.1194653023       12.8323576887       22.8605774668
  H         3.7701703157       12.9217198832       24.5193927399
  C         4.9693654015       14.5269070262       23.7628931711
  C         2.7503102656        9.5614104613       19.9430163745
  C        -0.1033275527       11.1106487964       26.8695727810
  H         0.6582139376        9.4402030532       25.6744065612
  C        -0.7928702821       12.8017144760       27.9213593254
  H         5.5912838956       14.1558445217       24.5301622645
  H         4.4983607240       15.4259356078       24.1483328368
  C         5.6041992590       14.6332005994       22.4504143537
  C         2.6028221190        8.1804247171       19.6399374063
  C         3.1284020629       10.4550476247       18.8101131761
  C        -0.5895437405       10.4185240413       28.1617242760
  C        -0.9678025459       11.7487253414       28.8103603282
  S        -1.0088523604       14.3432118677       28.6238270817
  H         5.7798936132       15.6838594431       22.2810810291
  H         4.8021233545       14.5491518409       21.7230757022
  C         6.8218616723       13.7109220469       22.2390169803
  N         2.4727850680        7.1125934003       20.5303773152
  C         2.7720489118        7.7298016994       18.3436197406
  C         3.3291355113       10.0104312749       17.5385185133
  H         3.2290680438       11.5136620037       18.9571527259
  C         0.3969321081        9.4422998391       29.0435092576
  C        -1.9885357365        9.6613632695       27.9024369369
  C        -1.3715753560       12.2162840805       30.1108352054
  C        -1.3964590177       13.5648728434       30.0970662997
  H         7.6347416433       14.3856490052       22.1064330549
  H         6.9010641336       13.1203966065       23.1556817652
  C         6.6924187702       12.8410160343       20.9292999173
  S         2.3363869538        5.7406319313       19.7195270533
  N         2.4776227444        6.3764323353       18.2256583074
  C         3.0984846738        8.5784460369       17.2481058403
  H         3.5780307825       10.7181037490       16.7728485524
  H         0.8398215436        8.7902161600       28.3511411177
  H        -0.0984129473        8.8146470463       29.7203938071
  C         1.5289157892       10.1641414310       29.7773595986
  H        -1.9703317331        8.9511925212       27.1008786174
  H        -2.0814102017        8.9427214110       28.7532909818
  C        -3.2055650007       10.5010747058       27.7505917245
  H        -1.4374598974       11.5808181587       30.9032336674
  C        -1.6940477211       14.3794798684       31.3623536429
  H         5.9145772659       12.1505055958       21.1208371040
  H         7.5564505960       12.2424742586       20.8062138465
  C         6.6038110783       13.7753359879       19.6662569131
  C         3.3322462626        7.9932863030       15.9550318960
  H         1.8674746869       11.1277098423       29.3834140606
  H         1.1929901335       10.3598033940       30.7967112104
  C         2.7758842446        9.3608001143       29.8885820533
  H        -3.0823687615       11.2059007558       26.9626536427
  H        -3.3887943050       11.0326034937       28.6755122034
  C        -4.4694396805        9.5627520059       27.3557326279
  C        -1.6198220317       15.7874136203       31.4596285883
  C        -1.8645960539       13.6460443861       32.6120544558
  H         5.7664778027       13.4228539663       19.0435523662
  H         6.2593437218       14.7334309893       19.9678276156
  C         7.8567627981       13.8576542425       18.8171099302
  H         3.2040603525        6.9163644729       15.9417199132
  C         3.6140053162        8.4842426522       14.6860306223
  H         3.0626049871        8.8876287548       28.9586812779
  H         2.5227697031        8.5546274478       30.5983967709
  C         3.9078793129       10.2365636466       30.3998484177
  H        -4.2625634820        8.9887592964       26.4801082780
  H        -4.7619705118        8.8708522859       28.1581420687
  C        -5.6771720526       10.4268280031       27.0974573475
  N        -1.3611597393       16.6325295595       30.3641216041
  C        -1.9353349605       16.4683585857       32.5771417197
  C        -2.0964708439       14.3470875868       33.8258270973
  H        -1.7053964272       12.5903198207       32.6353460222
  H         7.6975302004       14.3732981595       17.9106143634
  H         8.5259664917       14.5122662056       19.4066075151
  H         8.2789170857       12.8475112258       18.6530112963
  S         3.9063435318       10.1586497009       14.2345553182
  C         3.6702820863        7.5049427922       13.5324518022
  H         4.0498531109       11.1265705311       29.7870697426
  H         3.7932645886       10.5473247199       31.4052233152
  C         5.2628412079        9.5430967471       30.4610905877
  H        -5.6522088601       11.3514324057       27.6639190233
  H        -6.5789634542        9.9750009660       27.5593613492
  C        -5.9434430032       10.6538993223       25.6029957212
  S        -1.4377836786       18.1593570945       30.8691306656
  N        -1.9246292175       17.8469493666       32.3733460522
  C        -2.2138944471       15.8345483846       33.8370163843
  H        -2.1312743079       13.8687476354       34.7548643177
  C         4.2972068614        9.4999726060       12.6726954045
  N         4.2650989751        8.1287865221       12.5281099831
  O         3.4955527394        6.3108642264       13.6439111687
  H         5.9670646854       10.3040478653       30.7683111254
  H         5.5687243860        9.0140863670       29.5671459152
  C         5.3398609436        8.3983170359       31.5473057997
  H        -5.3076205966       11.4848932247       25.2380815190
  H        -5.6382072020        9.8250231534       24.9689111383
  C        -7.3746017392       11.0014648139       25.2603903040
  C        -2.6088182177       16.7395515083       34.9218124626
  S         4.7360297854       10.5516888251       11.3799071015
  C         4.4883279421        7.4828449841       11.2259576824
  H         6.2310263836        8.5751177057       32.1733533792
  H         4.4638924775        8.4423165307       32.3062534056
  C         5.3810213143        6.9194763837       30.9404340197
  H        -7.3639867031       11.3318726252       24.2901164675
  H        -7.6910239324       11.8196330676       25.9075764032
  C        -8.2868481133        9.8458669225       25.6459584333
  H        -2.4796009903       17.8797786549       34.7704188884
  C        -3.0090064367       16.4402984494       36.1641802691
  H         5.4394409481        7.7031561544       10.8208250121
  H         4.5704053256        6.4207402352       11.3613071451
  C         3.2739782135        7.5223406258       10.3781711026
  H         6.0494017196        6.9749587498       30.0913372291
  H         4.3769419947        6.5896025556       30.5138039627
  C         5.8991550147        5.8567575412       31.8363081324
  H        -8.4835419018        9.3076491604       24.7163757681
  H        -7.8168570197        9.0382781944       26.2533751285
  C        -9.6708323987       10.3007647271       26.1040402020
  S        -3.5596918435       14.8960633199       36.6775882526
  C        -3.1106126575       17.5950725677       37.2109646342
  H         3.4425415042        8.3181735082        9.6610839701
  H         3.1884727681        6.5790874205        9.8022004254
  H         2.3702471881        7.7013238715       10.8944432874
  H         6.3706213799        5.0922638785       31.1992879237
  H         5.1458535126        5.2059309990       32.2443204162
  H         6.5876116459        6.1868695099       32.6098073529
  H       -10.2702339247       10.3718017074       25.2128050453
  H        -9.7314449301       11.2742141686       26.6216196452
  H       -10.1127283135        9.4617101324       26.7284901839
  C        -3.9281415557       15.7477910456       38.1945021735
  N        -3.7204439672       17.0760961821       38.2519810050
  O        -2.7682291567       18.7194260612       37.0233608786
  S        -4.4574073810       14.9120793550       39.5890016691
  C        -3.8221290603       17.9470728899       39.4566647337
  H        -3.9209287260       19.0427662168       39.2011145064
  H        -4.6476309643       17.7378143247       40.1989961708
  C        -2.5352072214       17.7240920634       40.3013039966
  H        -2.2027842000       18.6546920975       40.8130779959
  H        -2.7480457856       17.0273286451       41.0452908722
  H        -1.7703323672       17.2670735565       39.6781012170
  H         6.5342990743       11.1757132663        3.2726742508
  C         7.3238462634       10.4807979724        3.3538174730
  H         6.7445727635        9.5624190690        3.5543470779
  C         8.3389514645       10.8151445269        4.4216885190
  C         8.1183967056       10.3010489123        1.9869616884
  C         7.7078086663       10.9935065412        5.7829368463
  H         9.0950231942       10.0417607610        4.4193605879
  H         8.7780088231       11.7449688160        4.1296043340
  H         8.4854244907       11.2024028993        1.5788981974
  H         7.5451577249        9.8152775726        1.2816695995
  H         9.0295346336        9.7185549838        2.0964544398
  C         6.9695723259        9.7161618645        6.2428975568
  H         8.4375650127       11.2852462506        6.4724896274
  H         7.0130998592       11.8337254951        5.8072397989
  C         6.4116761845        9.7139278327        7.7029898637
  H         7.7415569854        8.8824172982        6.1593782357
  H         6.1019565243        9.4773842364        5.6674800316
  C         5.1753523329       10.5625104971        7.7179185991
  H         7.0689813901        9.9530162563        8.5515468942
  H         6.0525124480        8.7085370570        7.9731101567
  C         3.8822530857        9.9888217905        7.1570655803
  H         4.9450742544       10.8998123033        8.7155071838
  H         5.3393740166       11.4643520358        7.1057855357
  C         2.6906487421       10.9235763875        6.9809767569
  H         3.7055860403        9.0694116482        7.7621197088
  H         4.0852908862        9.5955655890        6.1949875786
  C         3.0140696549       12.2700348731        6.3569294760
  C         2.2742822575       11.7281540957        8.2756429543
  C         1.5658065732       10.1671497533        6.1888186615
  C         2.8002083892       13.4094420855        7.1425779036
  C         3.4409973644       12.6139317073        5.0508970055
  C         2.3314985776       13.0513904462        8.4237770811
  C         1.7807095056       11.0689453911        9.4422547754
  H         1.9134701898        9.9609177323        5.1738395413
  H         1.2952706102        9.1752591406        6.6352422431
  C         0.3453274338       10.9641293618        5.9554642353
  S         3.3098223191       14.8325434370        6.2928343879
  C         3.6716722537       13.9205380510        4.8797411472
  H         3.5283996733       11.8224757600        4.3786318452
  C         1.9586048254       13.6630437356        9.5348730967
  H         1.7051596931        9.9342079533        9.5588392374
  C         1.4494922755       11.7081909841       10.6185725577
  H         0.5025440368       11.8803878799        5.3674549987
  H         0.0173160244       11.4128191952        6.8970450220
  C        -0.6637440184       10.1348829105        5.0927569054
  C         4.1108994485       14.5361460653        3.6224622300
  C         1.5016218393       13.0538716444       10.6791550453
  H         2.2634104963       14.7023719233        9.5011990453
  C         0.9758327165       11.2804050698       11.8548133755
  H        -1.6158057863       10.5953249873        5.2438242072
  H        -0.9436994025        9.1750980031        5.4796528706
  C        -0.3491535396       10.1534547421        3.6231048524
  C         4.0180652425       15.9018578220        3.2922616387
  C         4.4587895813       13.7459359756        2.4200599612
  C         1.1637745324       13.7544719372       11.9163674152
  C         0.8068089274       12.4092482734       12.7140236141
  S         0.6485142679        9.8253572501       12.6577472324
  H         0.5425379458        9.5601770521        3.3620596596
  H        -0.1685835614       11.1489124556        3.2332304699
  C        -1.6110946340        9.7611249567        2.9150412387
  N         3.7653390467       16.8734789558        4.2729736596
  C         4.2685792541       16.4499633772        2.0688107844
  C         4.6188395185       14.2245815994        1.1302046041
  H         4.6037635102       12.7072599368        2.5172442092
  C        -0.1173735542       14.6566325065       11.7586433490
  C         2.3867831059       14.5638807341       12.4782126315
  C         0.5171087913       12.0120420810       14.0471239455
  C         0.3927431398       10.6670869381       14.1333357226
  H        -2.0981626035        8.9281488516        3.4128381408
  H        -2.2270575094       10.6551762842        2.7851660744
  C        -1.2924053528        9.2249891947        1.5372611833
  S         3.6840190972       18.3106288662        3.5811116199
  N         4.1455063956       17.8258860199        2.0263598452
  C         4.6072509838       15.7049797846        0.9346613897
  H         4.9961480635       13.5656544981        0.3654407389
  H        -0.0712547419       15.2899021461       10.8516475299
  H        -0.2180203396       15.4050248351       12.5977826069
  C        -1.4421266578       13.8484733657       11.6226114233
  H         2.8912378326       15.1648379048       11.7477018487
  H         2.0132937350       15.3075974404       13.2419122051
  C         3.4676207979       13.6754057990       13.1081220156
  H         0.4725682932       12.7556438003       14.8585695479
  C         0.1214901198        9.9018764765       15.4053405491
  H        -2.2547047738        9.0100255050        1.0981383065
  H        -0.7954748027        8.2393314072        1.6108113327
  C        -0.5288696163       10.1487823179        0.5623641285
  C         4.8741916216       16.3226661648       -0.3288154658
  H        -1.4189899901       13.0986245445       10.8895766963
  H        -1.6106068211       13.2720547881       12.5248448970
  C        -2.6460990347       14.6573482199       11.1743882522
  H         3.5623644817       12.7842660597       12.4873819454
  H         3.2404556532       13.4347121962       14.1159011378
  C         4.7898389232       14.5445471119       13.2448214006
  C        -0.0014250509        8.5004652555       15.5145616182
  C        -0.2269918730       10.6271010194       16.6226307426
  H        -0.3524312195       11.0999697054        1.1183267735
  H         0.4700654367        9.7940709669        0.3853039593
  C        -1.2568552664       10.5093702791       -0.7466144327
  H         4.8938943487       17.4261749438       -0.3538587064
  C         5.2137614895       15.8941239204       -1.5645444658
  H        -2.3121634328       15.4125230814       10.4277909808
  H        -3.0213164538       15.2260647100       12.0287233412
  C        -3.6571382575       13.7024513801       10.6240242852
  H         5.3704010484       14.6705872012       12.2695940874
  H         4.3979560217       15.5649254491       13.5885116425
  C         5.7668904249       13.9974579266       14.2291767896
  N         0.3608238678        7.6094380454       14.5596467614
  C        -0.2716703046        7.8615645737       16.7416918562
  C        -0.5087646124       10.0052128496       17.8039480135
  H        -0.0752898554       11.6896106807       16.6042942804
  H        -0.7079674339       11.2779811388       -1.2309108142
  H        -2.2443954132       10.9313835080       -0.4877684953
  H        -1.4390952285        9.7563908615       -1.4727338106
  S         5.6349312386       14.2565315213       -2.0378477581
  C         5.2663896584       16.9354917423       -2.5999810331
  H        -3.2367740701       12.8989764222       10.0678644815
  H        -4.2475539667       13.3762901484       11.5023879237
  C        -4.5643197611       14.4047037986        9.6248619326
  H         5.7993287082       12.8838465124       14.0697129109
  H         5.3546239262       14.0998971881       15.1623345756
  C         7.1805671938       14.5566713651       14.2705795446
  S         0.3049165749        6.1021540405       15.2214491649
  N        -0.2142909135        6.4952459453       16.6550549973
  C        -0.5805238788        8.5344955558       17.9535408880
  H        -0.6656609808       10.6640768757       18.6172163471
  C         5.8181932303       14.9670957915       -3.6137237738
  N         5.7183008405       16.2888724272       -3.7187092612
  O         4.7975045783       18.0821462106       -2.4738173065
  H        -5.1847319199       15.2808763343       10.0027830610
  H        -3.9097548949       14.8001751339        8.8590039339
  C        -5.3626750170       13.3673962234        8.8332506815
  H         7.8782983848       13.8002298953       14.7941465194
  H         7.4875623146       14.6018258850       13.2567975458
  C         7.2621300955       15.9138347994       15.0693511385
  C        -0.7538959909        7.7237096700       19.1277611878
  S         6.2951864781       14.1847487529       -5.1372887063
  C         5.8496163386       17.0173407920       -4.9465012545
  H        -4.7901509228       12.8723983376        8.0866682487
  H        -5.7265358012       12.5651211829        9.5081911857
  C        -6.5588726492       13.9851569622        8.1320698620
  H         7.2490870804       15.7101806514       16.1823112857
  H         6.3092887759       16.4564182038       14.8356062498
  C         8.4048276549       16.7893609296       14.6131080991
  H        -0.3375996058        6.7528160175       18.9976818455
  C        -1.3401433063        7.9379831828       20.3606394870
  H         6.7341339798       16.5394271253       -5.4303662523
  H         6.1872806708       18.0415479117       -4.6473164621
  C         4.6008736333       17.1274888966       -5.7660815153
  H        -6.6589576155       13.4688353271        7.2079094098
  H        -6.3189868858       15.0302543098        7.8382371606
  C        -7.8197359025       14.0302607649        8.9992242486
  H         9.0405673478       17.1094418175       15.5171247651
  H         8.9894280923       16.1164372801       14.0405790702
  C         7.9430529900       17.9115436434       13.6384141325
  S        -2.2369907672        9.2709081040       20.8649186485
  C        -1.2744617665        6.7572917648       21.3507118459
  H         4.4024691300       18.1936996133       -5.9399784488
  H         3.7669989067       16.8038740145       -5.1373821174
  H         4.5029044198       16.6976312883       -6.7048324682
  H        -7.8215802269       13.0522833630        9.5015091724
  H        -7.6726458590       14.8133733313        9.6690162120
  H        -8.7361675598       13.9465896686        8.4888081344
  H         6.9001367748       17.8335316466       13.4503225511
  H         8.2768906614       18.8772258133       13.9548587745
  H         8.4501589528       17.5275413355       12.7635387367
  C        -2.4546022852        8.2915393710       22.3715823591
  N        -1.9695405018        7.0931136666       22.4527625495
  O        -0.6593588957        5.7017709063       21.1161309803
  S        -3.4609304186        8.7691490959       23.6699388936
  C        -2.0396864878        6.2481945690       23.6259475515
  H        -1.7562943926        5.1593372720       23.4341967542
  H        -2.9474662209        6.3085114570       24.2231167812
  C        -0.8353073748        6.8282507288       24.4723995355
  H         0.1269920307        6.7214071697       24.0142285946
  H        -0.7640074116        6.2936971844       25.4384270178
  H        -0.9070971289        7.8733673665       24.7619478318
