352
i =
  H        -2.9669725941       15.6085612676       16.0027075371
  C        -3.1527861628       14.7255774597       16.5779888234
  H        -4.1902637275       14.8833249039       16.9459913554
  C        -2.0884978232       14.6558228344       17.7275521836
  C        -3.1938613278       13.5428618387       15.5716908012
  C        -2.4878333664       13.8099713062       18.9405601730
  H        -1.1319977600       14.1569057002       17.3649047346
  H        -1.8449297783       15.7367625752       18.1418376467
  H        -2.2415038643       13.0784355665       15.4654955602
  H        -3.8826298619       12.7805734221       15.8585282368
  H        -3.4870109041       13.9229142249       14.5643914923
  C        -1.4234512962       13.6871151789       20.0450021275
  H        -2.7483645921       12.7831625902       18.6064049505
  H        -3.3467579593       14.2221978726       19.4740973186
  C        -1.9185177934       13.6324200410       21.4424685157
  H        -0.8029175543       12.8405876010       19.8012408725
  H        -0.6849841579       14.5339942601       20.0232184638
  C        -0.9378528431       13.0165936892       22.3632921440
  H        -2.7947867876       12.9743833135       21.4660436677
  H        -2.2602653795       14.6210667358       21.7560769233
  C         0.2810458590       13.8870059634       22.6433720598
  H        -1.4142226398       12.7575665424       23.3445670118
  H        -0.7119709524       12.0048696410       22.0178777950
  C         1.4152438419       13.1968015624       23.4313791688
  H         0.6764671037       14.2999881743       21.7601179659
  H        -0.1149435092       14.7878011173       23.2159117476
  C         1.6781875122       11.8896947958       22.7564073699
  C         0.9581912653       12.5417406272       24.7196261072
  C         2.6180354900       14.1413545175       23.6578215439
  C         1.5733803112       10.7674233735       23.5227193975
  C         2.0707387822       11.5016168393       21.4715472089
  C         1.0235874595       11.1817767115       24.7465677041
  C         0.5200389843       13.1383929586       25.9030076865
  H         2.5981905142       14.8250127393       22.7749760234
  H         2.5510620187       14.6416869588       24.6437949318
  C         3.9112019711       13.3517230231       23.5813913303
  S         1.8760054166        9.2585642649       22.7318023767
  C         2.2012549969       10.1327735321       21.3444951414
  H         2.2648894751       12.2468372144       20.7291882280
  C         0.6078611525       10.5551217230       25.8228408669
  H         0.5398364866       14.2141980078       25.9467614913
  C         0.1400884965       12.4582490615       26.9859695683
  H         4.0399420142       12.8068578797       22.5880836799
  H         4.0420338313       12.6117156713       24.3835350313
  C         5.2068737790       14.2064423754       23.8770148480
  C         2.6049448965        9.4210468582       20.0938554818
  C         0.1215884983       11.1021119287       27.0191080045
  H         0.6053227025        9.5116830440       25.7178061363
  C        -0.4076913121       12.7348707289       28.1806798427
  H         5.8491967432       13.6553864624       24.5472579192
  H         4.8053956420       15.0720408319       24.5155986512
  C         6.0576748935       14.8101464835       22.7559588770
  C         2.5206156148        8.0576376552       19.7421893792
  C         3.0620458507       10.3210015732       19.0170774529
  C        -0.2580895547       10.2924838346       28.2312377849
  C        -0.5532093693       11.6251741184       28.9650118513
  S        -0.6178324859       14.2148141386       28.9404440410
  H         6.6966804184       15.6088212966       23.2068009826
  H         5.4197545142       15.2602706786       22.0226217592
  C         6.8081352340       13.7531945450       21.8563088001
  N         2.1868003488        7.0075753167       20.6130500579
  C         2.6995989738        7.5808109732       18.4809537046
  C         3.2283816907        9.8431637415       17.7600472106
  H         3.3303900606       11.3662403134       19.2737690690
  C         0.8851235797        9.5568759618       28.9014120600
  C        -1.6344210243        9.5435137875       28.1623759104
  C        -0.9084870347       11.9797931432       30.2927291992
  C        -1.0098230764       13.3497122983       30.4500042022
  H         7.8619411653       13.7471961634       22.2484138222
  H         6.3293450968       12.8535804569       22.1453087187
  C         6.5495408931       13.8495939492       20.3109208653
  S         2.0819683841        5.6133409563       19.7227791836
  N         2.4155112042        6.2740437513       18.3378823876
  C         3.1224297045        8.4073107484       17.4496574854
  H         3.5881015482       10.4898814489       16.9087874410
  H         1.0001313557        8.6201479298       28.3953770538
  H         0.6537462136        9.4329428497       29.9203461525
  C         2.1523544205       10.3648963187       28.9259185439
  H        -1.4594326237        8.6748793620       27.6531481127
  H        -1.9117432169        9.2955833132       29.1911072931
  C        -2.7742773827       10.3811469348       27.4971003256
  H        -1.1587860053       11.2557030832       31.0325862429
  C        -1.4123035637       14.1328503088       31.6409900549
  H         6.2255061680       14.8601910429       20.0500070795
  H         5.7622230057       13.1337717724       20.0008739635
  C         7.8417434730       13.4919510753       19.6536225857
  C         3.2769389449        7.8379259685       16.1755468628
  H         2.3855622010       10.7024606204       27.8539981631
  H         1.8954808825       11.1876909369       29.5946284139
  C         3.2364136893        9.5351073723       29.5926208863
  H        -2.5943427995       10.4262580422       26.4371651329
  H        -2.8177201236       11.3716188491       28.0113504372
  C        -4.1407658917        9.6976489275       27.4194555297
  C        -1.4793440309       15.6037833290       31.7938932794
  C        -1.5797181853       13.3982049034       32.9328123220
  H         8.5975597948       14.1275666089       20.0962367321
  H         8.0074234263       12.3899325296       19.8297390211
  C         7.6585208831       13.7439616042       18.2003406511
  H         3.1676706219        6.7682790086       16.1471782164
  C         3.6165048272        8.3097237144       14.9159836986
  H         3.3031541170        8.6210516237       28.9211979612
  H         2.8740490420        9.3000901690       30.6201285279
  C         4.6375320215       10.3216365494       29.8335374375
  H        -3.9439384460        8.7514165526       26.9713331927
  H        -4.5949701077        9.3395325643       28.3452915467
  C        -5.1626082178       10.5050817057       26.6734604470
  N        -1.1414958363       16.5155178968       30.7984050944
  C        -1.7634646668       16.1848191018       32.9906111307
  C        -2.0351304868       14.0107400730       34.1013917683
  H        -1.4020578606       12.3537660308       32.9387147947
  H         8.5736158740       13.3921512444       17.7648713306
  H         6.9796890975       13.0471517613       17.7057114113
  H         7.5049675525       14.7718366253       17.9233420658
  S         4.0087606719        9.9345647559       14.5472778476
  C         3.5929815359        7.3817313157       13.7273829677
  H         4.8423252558       11.0991480599       29.0822631567
  H         4.6053934266       10.7913872652       30.7964176228
  C         5.7804813757        9.2873226400       29.8358153343
  H        -4.6341016466       11.0297270755       25.8909139571
  H        -5.4945578990       11.2654460722       27.3176883324
  C        -6.3365094042        9.8004416708       26.0845394530
  S        -1.2309436153       18.0398429890       31.4101476986
  N        -1.6487031050       17.5920398223       32.9046878178
  C        -2.0228000879       15.4604876871       34.1905300830
  H        -2.1533867532       13.4406522702       34.9986832577
  C         4.1219180012        9.4238734637       12.8130110990
  N         4.0057290967        8.0994224827       12.6389505821
  O         3.3551803481        6.1930416891       13.8451766182
  H         6.7621144682        9.8144523607       29.7392106109
  H         5.5982436065        8.8133712013       28.8704572884
  C         5.8056393355        8.2410420298       30.9477861542
  H        -6.0629347206        9.1657157666       25.2860304603
  H        -6.7975874936        9.1826588672       26.8094010158
  C        -7.3356887814       10.7211658504       25.3687065779
  C        -2.4084108052       16.1491209146       35.3532867319
  S         4.6624960831       10.3575341406       11.4283381525
  C         4.1077049584        7.3446805726       11.4141293807
  H         6.1825913399        8.7392887808       31.8401728284
  H         4.7852430302        7.9281789591       31.1686114664
  C         6.7292950055        7.0491957597       30.7686451941
  H        -6.8749733746       11.2106081221       24.4702381562
  H        -7.4896445685       11.6413043275       25.9602283905
  C        -8.6526579644       10.1006329377       24.8138158040
  H        -2.2283781245       17.1709936620       35.2949943844
  C        -2.8052736732       15.8376971315       36.6222267363
  H         4.9130670415        7.6612339128       10.7795906276
  H         4.4380373549        6.3965042270       11.8293138937
  C         2.7078800279        7.1414859642       10.7162462917
  H         7.7662255732        7.4273015842       30.5539049653
  H         6.3386313652        6.5511260565       29.8520729501
  C         6.6498301125        6.0818868589       31.9319946224
  H        -8.9901035444       10.7407538392       23.9922359179
  H        -8.4003839284        9.1021985778       24.5276221004
  C        -9.6986482515        9.8779754897       25.8907920123
  S        -3.2268733649       14.3407421566       37.2326606228
  C        -2.8682154832       16.9818117855       37.6187884867
  H         2.3442704609        8.1276765980       10.5020177450
  H         2.7532956926        6.7142664773        9.6953298950
  H         2.0454140665        6.5022406307       11.3284992666
  H         5.6631699670        5.5746498293       31.9134197064
  H         6.8585683641        6.5859831730       32.9537660094
  H         7.3599031792        5.2348980101       31.8429177405
  H        -9.3137079091        9.2663598214       26.6285328037
  H       -10.5415187953        9.4383447018       25.4145388722
  H       -10.0850974402       10.8267111288       26.3105847976
  C        -3.5579203650       15.1570093481       38.7974182850
  N        -3.3872849137       16.4644147992       38.7943456804
  O        -2.6264647603       18.1564128550       37.3756057455
  S        -3.9828068742       14.3426244550       40.3332453284
  C        -3.5973298655       17.2775589278       39.9599822239
  H        -4.0125210063       18.2250434264       39.5329552421
  H        -4.4183319871       16.9289139384       40.5927567003
  C        -2.2596117389       17.6418099315       40.6643303417
  H        -1.5247523975       17.9195795237       39.9257408029
  H        -2.4659285076       18.4476106525       41.3189252601
  H        -1.7546859569       16.8056866467       41.1259988439
  H         7.7806865742       11.7157880499        3.1639999883
  C         8.2139364541       10.7614941312        3.4254439198
  H         7.3835161420       10.0496712350        3.4274834021
  C         8.9507899853       10.8442384920        4.8126939794
  C         9.0988025860       10.4275961714        2.2749392176
  C         8.1236757925       11.1233039783        6.0044265659
  H         9.5865356637        9.9563514513        5.0738153019
  H         9.6870180599       11.6488450201        4.6916761630
  H         8.6512256878       10.5566039996        1.3148036679
  H         9.5565228824        9.4091986640        2.3161730236
  H         9.9057173797       11.1563839811        2.3769975203
  C         7.5508487454        9.8260660057        6.4966468382
  H         8.6375093332       11.8075668580        6.7243395808
  H         7.3693018603       11.8732978780        5.7305300739
  C         6.6692776301       10.0564420585        7.7758245995
  H         8.3706862166        9.1271007404        6.6865279851
  H         6.9212656475        9.4449715191        5.7025627050
  C         5.3787893040       10.8448487183        7.6662401950
  H         7.2395591411       10.6665373282        8.5020258620
  H         6.4154480084        9.1377064751        8.2267114255
  C         4.2054318953       10.0875663648        7.0261539545
  H         5.0039283106       11.1119504286        8.5848695745
  H         5.6103491389       11.7922693364        7.2234935783
  C         2.8857047194       10.9666348621        6.8613935847
  H         4.0098885936        9.1845084665        7.6505005157
  H         4.4027479337        9.6690545959        6.0583834875
  C         3.1690553100       12.3394715957        6.2103047509
  C         2.4393710568       11.6122479791        8.1191267239
  C         1.7908738516       10.1323569637        6.1685770053
  C         2.8772158236       13.3970112128        7.0254185928
  C         3.6527730761       12.7569244810        4.9439660688
  C         2.4249509893       12.9267834334        8.2313336061
  C         2.1084260138       10.9240420404        9.2640265680
  H         2.2185063221        9.7182644268        5.2032361096
  H         1.6117657981        9.2962918471        6.7779147502
  C         0.4782853090       10.9549704096        5.8984135294
  S         3.3491004771       14.9151056217        6.4519461136
  C         3.8040896064       14.1191382106        5.0039955281
  H         3.8566239132       12.0835024611        4.1072693716
  C         2.1836317240       13.4695459896        9.4593018077
  H         2.2118292792        9.8302129041        9.2232384942
  C         1.6984277525       11.4814380644       10.4108069910
  H         0.7984008553       11.7639657461        5.3824214934
  H         0.0411782763       11.2401160475        6.8571855138
  C        -0.5765775838       10.1928302511        5.1784311631
  C         4.3589157252       14.8505671519        3.8309353344
  C         1.6969021661       12.8130108815       10.5957427668
  H         2.2178375560       14.5207852459        9.5293679554
  C         1.3279052095       11.0593205268       11.6759742920
  H        -1.5980901887       10.6029440778        5.2715646474
  H        -0.6671539128        9.2066075192        5.5815934772
  C        -0.1856289771       10.0801252416        3.7285689121
  C         4.3341867146       16.2389523579        3.6913047245
  C         4.8536649626       14.0837851096        2.6184785598
  C         1.3961169178       13.4919068557       11.8909134031
  C         1.1343062696       12.1576384064       12.5211956742
  S         0.9313781216        9.5725623961       12.4670758031
  H         0.3700675738        9.2121611736        3.4764687590
  H         0.3300130260       10.9273635100        3.4713897803
  C        -1.4317814479       10.0849186421        2.7631980611
  N         4.1143607273       17.1145065462        4.7608977620
  C         4.5883761204       16.8462541738        2.4443333037
  C         5.1516242649       14.7106255260        1.4318023503
  H         4.7874659397       13.0500156899        2.6301556715
  C         0.1514023177       14.3503953945       11.9163816524
  C         2.8447763778       14.2448479679       12.3489162115
  C         0.6987331511       11.7631228488       13.7840519128
  C         0.5752057209       10.3765169229       13.9276088026
  H        -2.2576251918        9.3880206252        3.2152096140
  H        -1.7703421654       11.1467466507        2.8562864024
  C        -1.1177025656        9.6469767523        1.2818647745
  S         4.0406724615       18.5964238660        4.1122013373
  N         4.3022792680       18.2012432502        2.5316042649
  C         4.9339169129       16.1478316283        1.2414012524
  H         5.4701833700       14.0953146835        0.6459482263
  H         0.3027498620       15.2362355910       11.3254449881
  H        -0.0170280573       14.7135755566       12.9645361233
  C        -1.0821988770       13.5064630451       11.5024853967
  H         3.5454988431       13.8090052597       11.6510849521
  H         2.9007803837       15.3278505305       12.1393764620
  C         3.3814016376       13.7195099697       13.6757316935
  H         0.4423360961       12.4736580621       14.4784866475
  C         0.2774236087        9.6665645481       15.2259532660
  H        -1.9782524981        9.7064261582        0.5978282818
  H        -0.8064093979        8.6095784373        1.3196562317
  C        -0.1745985086       10.6151866131        0.4737607344
  C         5.0965656933       16.8574995476        0.0810377004
  H        -0.8048403254       12.7694255044       10.7653233068
  H        -1.3970895113       12.7894313866       12.3055809712
  C        -2.2397527442       14.3823846859       10.9825121527
  H         3.5750344068       12.6711509904       13.6795515784
  H         2.6124526274       13.8307599994       14.3826765221
  C         4.5706148955       14.5123013087       14.2605084740
  C         0.1298907350        8.2715709619       15.3599444273
  C        -0.0735809033       10.4069611518       16.4322718563
  H        -0.2642828162       11.6226280190        0.8475062401
  H         0.8149260816       10.2905951933        0.7586976507
  C        -0.4174120433       10.7670078011       -1.0739738425
  H         4.8901411228       17.8892669422        0.2079601692
  C         5.5710662339       16.4996976059       -1.1782144852
  H        -1.8460932047       15.1373063648       10.3142153543
  H        -2.6810011121       15.0202672752       11.6748586278
  C        -3.2165171703       13.4825410759       10.3171012020
  H         4.4538273325       15.5838198789       14.0809126875
  H         4.5375859058       14.3527242908       15.3243637998
  C         5.9391385057       14.0430061845       13.6984650210
  N         0.3627387799        7.3664697426       14.3583177910
  C        -0.2896501903        7.7153903877       16.5898944941
  C        -0.3143044899        9.8505181801       17.7188027515
  H        -0.0065163436       11.4751051083       16.4333523218
  H        -1.3555146938       11.0712566117       -1.4899773770
  H        -0.1950540890        9.8079629107       -1.5488456382
  H         0.3882470518       11.5049539964       -1.4192980394
  S         5.8975310444       14.8755647226       -1.7748900150
  C         5.6126740115       17.4900122443       -2.2112690182
  H        -2.7300304792       12.9278458121        9.5627359759
  H        -3.5566747980       12.7526472926       11.0498923338
  C        -4.4069904417       14.2486765361        9.7715766770
  H         6.0526396525       14.4053347434       12.6461081860
  H         5.9165655965       12.9741608673       13.6758036758
  C         7.1290839156       14.5476326920       14.4733601471
  S         0.2200521192        5.9115096849       15.0424158081
  N        -0.2930606124        6.2905587740       16.5444494853
  C        -0.4460049071        8.4254264307       17.8083677276
  H        -0.4628529457       10.4226606768       18.5886402663
  C         6.1173707049       15.5596102900       -3.3708266087
  N         5.9740719807       16.9427293861       -3.3791268392
  O         5.4156226930       18.6843442465       -2.0218477335
  H        -4.8684527172       14.7451166575       10.6516915330
  H        -4.0414240309       15.0497265332        9.1622923247
  C        -5.5506342120       13.4812542095        9.0826089441
  H         6.8840137315       14.9958368597       15.4064723472
  H         7.7479929702       13.5946107363       14.6294588847
  C         7.9617532824       15.5176135286       13.6726149488
  C        -0.7329717874        7.7420342867       19.0313188547
  S         6.3815070659       14.6203532071       -4.8849739036
  C         5.8978983535       17.6835056570       -4.6174352626
  H        -5.1390181738       13.2197744156        8.0969894789
  H        -5.7566440217       12.4977154866        9.5108817059
  C        -6.7677851690       14.3770086238        8.8650259830
  H         8.2241485913       15.0688830374       12.7542670621
  H         8.8387842632       15.6368411832       14.2867829858
  C         7.2951344213       16.9389875151       13.3793040868
  H        -0.4871174101        6.6986809152       18.9469827757
  C        -1.1959876176        8.1984096072       20.2769304974
  H         6.6369904717       17.4388964310       -5.4377588008
  H         6.1908138596       18.6603932885       -4.4328020715
  C         4.4710265567       17.6784624753       -5.1954813460
  H        -7.5085176106       13.8472135636        8.2823229095
  H        -6.7498699653       15.2793615633        8.2975497554
  C        -7.5737420052       14.5738544123       10.1138593433
  H         8.0220195626       17.6362948115       12.9040470384
  H         6.4321427239       16.8168464368       12.7481174709
  C         6.9508694193       17.5841807265       14.7955558464
  S        -1.7614126372        9.7262970796       20.7059812587
  C        -1.2904259303        7.1957079369       21.3376148286
  H         3.8561922044       18.2637684119       -4.5933854495
  H         4.0674198290       16.6840469579       -5.1449698625
  H         4.4173527847       18.0520885843       -6.2018218719
  H        -7.5462018900       13.6034500013       10.6892274069
  H        -7.3046002910       15.4582996070       10.8386496313
  H        -8.6093477851       14.6717633932        9.6268895041
  H         6.0772628893       17.2640725931       15.2649310085
  H         7.8079739263       17.4584865064       15.5502217705
  H         6.7257699461       18.6114831776       14.5905228968
  C        -2.0265782335        9.0939432792       22.3365452712
  N        -1.7588003723        7.7613622827       22.3880028406
  O        -0.9974574586        6.0124708785       21.1357038906
  S        -2.6120927986       10.0073971490       23.6992189286
  C        -1.9194924247        6.9131219257       23.5865381966
  H        -1.9444099684        5.8862180793       23.2032998368
  H        -2.8355434218        7.3266973992       24.0023915283
  C        -0.7729320332        7.0183176723       24.5990432065
  H        -0.8148437823        6.4711224309       25.4803668362
  H        -0.7456316482        8.1049841674       24.8234455537
  H         0.1786777322        6.7721607087       24.1546402562
