352
i =
  H        -2.6859570049       14.8785502405       16.8142160100
  C        -3.0595673566       13.8699309780       16.6024623228
  H        -4.1765316441       13.8980208654       16.7829369340
  C        -2.3411597354       13.0617236440       17.6054337585
  C        -2.8547822906       13.3053629111       15.1913587387
  C        -2.2986507509       13.7231513700       18.9909109559
  H        -2.6158882895       12.0264760674       17.6471247396
  H        -1.2666858089       13.1014227053       17.3354779711
  H        -3.0228339192       12.2141980515       15.1591704315
  H        -3.5037366910       13.8821660300       14.5413698604
  H        -1.8149446234       13.2434844267       14.8969580705
  C        -2.6808734703       12.6690760367       20.0589905016
  H        -2.8737908547       14.6067262409       18.9994642730
  H        -1.2813429039       14.1055764519       19.2693593842
  C        -2.4967655564       13.0565311328       21.4707714537
  H        -3.6799213723       12.2997378436       19.9664194716
  H        -1.9883883720       11.7910857401       19.8457385779
  C        -1.2572937974       12.4250593861       22.2056967643
  H        -3.3629919684       12.8056850088       21.9804660467
  H        -2.4653886327       14.1184936935       21.5216373000
  C        -0.1122810664       13.4790855255       22.3731776071
  H        -1.6446502353       12.1548579357       23.1883366308
  H        -0.9177405963       11.5111689083       21.6709950543
  C         1.1004266350       12.9125900240       23.2389635736
  H         0.1501711666       13.5813555107       21.3211646442
  H        -0.4788497377       14.4813344947       22.6016251412
  C         1.5974269486       11.6601329375       22.5876116432
  C         0.6491751630       12.2372078852       24.4292202599
  C         2.2817961752       13.9422895386       23.5546338926
  C         1.2952099569       10.5589038956       23.4291930567
  C         2.2501388906       11.3097030333       21.4139505929
  C         0.7209982306       10.9199618178       24.5729448004
  C         0.1257743979       12.8828696999       25.5582890481
  H         2.5058026554       14.6215957627       22.6963924538
  H         2.0305365954       14.5655519965       24.4040461103
  C         3.5669214413       13.1099856785       23.8753499379
  S         1.6454037267        9.1203048100       22.6062950587
  C         2.3122326522        9.9483620625       21.2044563237
  H         2.5376684884       12.0909121826       20.7933114583
  C         0.1496357425       10.2605573128       25.6402647188
  H        -0.0611653076       13.9165068377       25.6478628573
  C        -0.2208655088       12.2734443202       26.7262783897
  H         3.8854753577       12.4779218351       22.9784425135
  H         3.4559393239       12.3788496248       24.6777388715
  C         4.6974653082       14.0383248065       24.3735054159
  C         2.7230287153        9.2669255254       19.9897109175
  C        -0.2981441609       10.9013928827       26.7913716285
  H         0.2008815407        9.2028819906       25.7197176628
  C        -0.5489102433       12.6748075411       28.0300077174
  H         5.5358115201       13.4664078025       24.7378087476
  H         4.1724684151       14.6315892939       25.1504790698
  C         5.2362589497       14.9270035677       23.2797356311
  C         2.5334648790        7.8427741390       19.7458372742
  C         3.0409234474       10.0871042042       18.7630215122
  C        -0.7629462656       10.2842128951       28.1420229076
  C        -0.9254651785       11.6164957439       28.8598414291
  S        -0.8376236762       14.2401104085       28.7821181359
  H         5.8446123037       15.7658963610       23.6099975592
  H         4.3436314102       15.3253337373       22.8889091685
  C         6.0709206025       14.2013597987       22.2889872205
  N         2.1384719248        6.8522945599       20.6442182646
  C         2.7359716373        7.3022922143       18.4671530766
  C         3.1397791679        9.4863958699       17.5266549240
  H         3.1642043079       11.1987417400       18.8084048016
  C         0.2697108679        9.4049711893       28.9276003181
  C        -2.0596982764        9.5035140374       27.9086853361
  C        -1.4264802155       12.0380907394       30.0857857343
  C        -1.3399028849       13.3796878810       30.2240203321
  H         6.9635952686       14.7658371377       21.9868506986
  H         6.4285163469       13.2366655875       22.7079043517
  C         5.3390515679       13.8576893577       20.9346404338
  S         2.2845342243        5.3786175651       19.9794209018
  N         2.6132480117        5.9091375864       18.5039555607
  C         3.0516033616        8.0104818550       17.3093401341
  H         3.3040831377       10.1441138253       16.6823084915
  H         0.6703435910        8.7173057932       28.1977255219
  H        -0.0966275915        8.7019530782       29.6770638533
  C         1.5359380475       10.0927643637       29.4852429557
  H        -1.7878837072        8.5804929789       27.2626515749
  H        -2.3436968530        9.1001206028       28.8663456731
  C        -3.1978497226       10.4009582592       27.3547107637
  H        -1.7070936183       11.2855659931       30.7851319152
  C        -1.7133773748       14.0424805135       31.5769623020
  H         5.0380093312       14.8578453330       20.6261648354
  H         4.4351983369       13.3471665987       21.0692589824
  C         6.0597598263       13.0249896646       19.8931617982
  C         3.1297012615        7.3193067911       16.0211038234
  H         2.1045601925       10.4538340750       28.6911454260
  H         1.1754527227       10.8902981299       30.1141425211
  C         2.3725558879        9.1269414395       30.3247514430
  H        -3.0667662245       10.5111802547       26.2676931192
  H        -3.1944133656       11.3015698084       27.9189244253
  C        -4.4996646665        9.6171264734       27.5464615091
  C        -1.9242232463       15.3911099483       31.8716082375
  C        -2.0431469862       13.1560423885       32.7312457731
  H         6.7468339567       12.3684494800       20.3433963844
  H         5.2802438984       12.3873734077       19.3912331984
  C         6.9810746865       13.9169264839       19.0298745024
  H         2.8513416177        6.2373371789       16.0842526340
  C         3.5541061458        7.7093952726       14.8213578421
  H         2.5109622193        8.1904599109       29.7394882577
  H         1.7396171573        8.8429001704       31.2051978579
  C         3.6618988518        9.7149566368       30.8293979849
  H        -4.4452127076        8.6830382933       27.0470358297
  H        -4.6730364644        9.3652980429       28.5767856220
  C        -5.8139810648       10.2971491172       26.9663416538
  N        -1.6095656525       16.2909506410       30.9009555169
  C        -2.3237101482       15.9369755236       33.0736904789
  C        -2.4898414511       13.6671148956       33.9871654620
  H        -1.8160293107       12.0793536282       32.7087772924
  H         6.4444068590       14.7675252559       18.7332252768
  H         7.8780437558       14.1424526119       19.5661110297
  H         7.1694716668       13.4315218962       18.1217686128
  S         4.1462941220        9.3131504379       14.3954354486
  C         3.3368783641        6.7464860953       13.7373006321
  H         3.7739523064       10.6683191127       30.3810569336
  H         3.5647341260        9.7251557332       31.8878214605
  C         4.9007184331        8.7651608961       30.5318437148
  H        -5.4066036836       11.1895657894       26.4339196277
  H        -6.5066015369       10.6792441508       27.7708440749
  C        -6.6933252959        9.4783003824       25.9904479350
  S        -1.7489009198       17.8070717423       31.5392966039
  N        -2.4874184223       17.3384002277       32.9113741257
  C        -2.6485877060       15.1071593966       34.2134672697
  H        -2.5952895535       13.0079144189       34.8636837316
  C         4.1191801899        8.6962828316       12.7197317488
  N         3.6078909401        7.4551694909       12.5473369517
  O         3.0376815155        5.5803831040       13.8577156685
  H         5.8324265258        9.2949238164       30.7135636430
  H         4.9558798686        8.4044261503       29.4822865772
  C         4.8734539275        7.6520838533       31.6433342729
  H        -6.0801321877        8.9888925018       25.3022665506
  H        -7.1951919557        8.7334040492       26.5166978369
  C        -7.6079211692       10.3286473623       25.2274718369
  C        -2.9230756917       15.8273959765       35.3859512021
  S         4.6097544978        9.5074189480       11.2852258644
  C         3.5883529397        6.7226720015       11.2469526035
  H         4.7563957041        8.0679241371       32.6569094725
  H         4.0077490357        6.9853022829       31.5981243480
  C         6.1640609365        6.8167277276       31.7423332339
  H        -6.9423230715       10.5724658760       24.4546225413
  H        -7.7209704171       11.2260499897       25.8232939568
  C        -8.8169257662        9.6490894040       24.7741700175
  H        -2.5275849083       16.8000849324       35.4671819697
  C        -3.4769124708       15.4859898373       36.5908505679
  H         4.1081643989        7.1567920787       10.3947510401
  H         4.1848382010        5.8490814217       11.3872515058
  C         2.2268639238        6.1655999839       10.8513875444
  H         5.8094787327        5.9185361444       32.2259666809
  H         6.8815589368        7.3073138222       32.4720431139
  C         6.7847264891        6.2827427914       30.4020848672
  H        -9.3199029847       10.0289189696       23.8068628918
  H        -8.5924185557        8.5334291476       24.7521537009
  C        -9.8371824349        9.8644647166       25.8481374508
  S        -4.1583906596       13.9484334703       37.0191083542
  C        -3.6313620026       16.5683737961       37.5893250804
  H         1.3424481812        6.7590611030       11.1092869178
  H         2.2563558556        5.9281047140        9.7977276141
  H         2.1113068748        5.2753132146       11.4018336266
  H         7.5623181310        5.6358010739       30.6517268046
  H         7.1964366921        7.0552190351       29.8786546894
  H         5.9423989204        5.7709336586       29.8886210463
  H       -10.8404533986        9.3705266976       25.6906909964
  H       -10.0554956722       10.9117977043       26.2185727889
  H        -9.4195357587        9.4853591963       26.7609604949
  C        -4.3693315095       14.7031947742       38.5936017898
  N        -4.2203256557       16.0451405113       38.6501202786
  O        -3.2010136103       17.7595387361       37.4356289480
  S        -5.1119693707       13.9515398207       39.9636197779
  C        -4.3529837973       16.8164424434       39.8564535802
  H        -4.6290142904       17.8556474798       39.4853411396
  H        -5.2074054137       16.5063852343       40.3856293554
  C        -3.1887350755       16.5716761336       40.8545084779
  H        -2.3081960347       15.9955031358       40.4891330148
  H        -2.8313690953       17.5278416419       41.2979655145
  H        -3.4832407869       15.8548663139       41.6164542091
  H         7.3651508031       11.4285184196        3.5865177664
  C         8.0603521305       10.6392333268        3.7688882033
  H         7.4791830265        9.7283582637        3.8356539622
  C         8.8273760552       10.8889252990        5.0610076925
  C         9.0971946906       10.3900494728        2.5997558024
  C         7.9600037752       10.9135571190        6.3516194455
  H         9.6137370260       10.2021698853        5.1401720475
  H         9.3530129494       11.8715303646        5.0264232612
  H         8.5109814917        9.8614408330        1.8932694782
  H         9.9544161037        9.8184408990        2.9763444573
  H         9.3869819579       11.3548138476        2.1148471669
  C         7.4127488744        9.5972985876        6.8239878530
  H         8.4880221996       11.3056787128        7.1720250630
  H         7.1737885710       11.6633738022        6.2775268218
  C         6.5692600843        9.6450679567        8.1347702791
  H         8.2029334692        8.9344406499        6.9354584358
  H         6.7668920377        9.2216867635        5.9830375626
  C         5.3254976346       10.4826269419        8.0356039862
  H         7.1704967693        9.9594728499        8.9063664689
  H         6.2450877540        8.6345362339        8.4529868316
  C         4.1536278806        9.7563589112        7.2549264036
  H         5.1009245624       10.9194609722        9.0367082851
  H         5.6459113490       11.3058365633        7.4049137560
  C         2.8671271106       10.5760623369        7.1205129322
  H         3.8368152654        8.8450956302        7.7619703782
  H         4.5218722548        9.4599675022        6.2554410133
  C         3.1675360560       11.9649287887        6.4946869776
  C         2.4234240716       11.1664120176        8.4544484026
  C         1.8615730478        9.7095284791        6.3501513470
  C         2.9719879161       12.9970811176        7.3724503669
  C         3.7692712229       12.3582898672        5.2874890529
  C         2.4269642781       12.5423620223        8.5592912519
  C         1.9242101865       10.5524968928        9.6128839334
  H         2.1796544268        9.8166988669        5.2783700582
  H         1.6294024508        8.6401336965        6.5811023978
  C         0.5024980761       10.4130182904        6.1710996985
  S         3.3591472041       14.5338718325        6.7082683779
  C         3.8598924490       13.7419156153        5.1881207347
  H         4.0879058684       11.6388035116        4.5731211778
  C         1.9894681062       13.2264804685        9.6576235128
  H         1.8582604914        9.4977852233        9.6342585913
  C         1.5304190124       11.1973389291       10.7188563039
  H         0.5278070055       11.4445908097        6.0010320047
  H         0.0083556296       10.4539356866        7.1181982505
  C        -0.4483163177        9.7933160309        5.0667234975
  C         4.3300881142       14.4111788750        3.9608265474
  C         1.5652683450       12.5621672726       10.8173908891
  H         2.2147843354       14.2794061766        9.6902546971
  C         1.0858717414       10.7951407481       11.9755712965
  H        -1.4547961796       10.3435252064        5.1138530489
  H        -0.6904232982        8.7406928903        5.3184496098
  C         0.1108621035        9.9322112516        3.6571148385
  C         4.1869185145       15.8080885961        3.7284171721
  C         4.8912391838       13.5339106545        2.8453906981
  C         1.1693910244       13.2256278307       12.0663772926
  C         0.8878858508       11.9169949391       12.7599853716
  S         0.7871453230        9.3079112792       12.7382001973
  H         0.9732579799        9.3066228768        3.5482720878
  H         0.5119109338       10.9413176018        3.4674518117
  C        -0.9248358086        9.6506912318        2.6073709611
  N         3.6281274770       16.7383547867        4.6081995594
  C         4.4591431190       16.3584810228        2.4847637867
  C         5.1802668712       14.1109301584        1.6192552739
  H         5.0070061823       12.4697233444        2.9063371999
  C        -0.1126331508       14.1071523672       11.8743893839
  C         2.3600541660       14.0009824503       12.8135284355
  C         0.5596262673       11.5409619941       14.0913291427
  C         0.4237554433       10.1927406506       14.1902087543
  H        -1.1001779469        8.5644047983        2.7395916601
  H        -1.8530287297       10.1593469968        2.8963419782
  C        -0.4552995385        9.9982546785        1.2020548936
  S         3.8496170529       18.1890044176        3.8449249644
  N         4.2994259511       17.7272646947        2.3694855209
  C         4.9196902981       15.5462331735        1.3521549564
  H         5.5575737123       13.3977516261        0.8718061414
  H         0.0304177902       14.8588755776       11.1236462497
  H        -0.4328145422       14.6475113951       12.7692285830
  C        -1.3451128343       13.3232669661       11.4844913753
  H         2.7318893128       14.8143604501       12.1951481205
  H         1.8118407804       14.3988047972       13.7189217665
  C         3.5280956801       13.1036073536       13.2495847691
  H         0.4444264028       12.3225719616       14.8314762467
  C         0.0827057669        9.4621237568       15.4441749907
  H         0.4281641920        9.3805685239        1.0938535097
  H        -0.1246421443       11.0391978179        1.1406600738
  C        -1.4763837765        9.5578453914        0.1335167629
  C         5.0630172042       16.1808965176        0.0645289809
  H        -1.0368385104       12.6926171225       10.6765036581
  H        -1.6269229244       12.7031313015       12.3129280352
  C        -2.5440280634       14.2118420605       11.0462619615
  H         4.0432425014       12.6094513054       12.4207217414
  H         3.2252288893       12.2915199416       13.9143301366
  C         4.6998867236       13.9232660695       13.9453230012
  C        -0.0412061339        8.0399977760       15.5461680635
  C        -0.0452102374       10.2193532877       16.7362213286
  H        -1.3981150106        8.5022592649       -0.0417000510
  H        -2.5168085511        9.7474769550        0.3711726364
  C        -1.1130889301       10.1752232712       -1.2511119403
  H         4.9273759372       17.2699707713        0.0469129525
  C         5.2428507870       15.6907384767       -1.2562896214
  H        -2.1887201515       14.8523599011       10.2766629480
  H        -3.0054187403       14.8181670115       11.8388977226
  C        -3.6976820483       13.2772134456       10.6090744998
  H         4.8279532921       14.7833054175       13.3403380303
  H         4.4771297439       14.3319926897       14.9635259972
  C         6.1067787703       13.2948721656       14.1839837606
  N         0.2213010374        7.0986202468       14.5293533247
  C        -0.3023791061        7.3584454230       16.7400192391
  C        -0.1696994860        9.4579195744       17.9177521632
  H         0.0799911267       11.3087047385       16.7625534488
  H        -0.0929867806       10.0678550983       -1.5666787987
  H        -1.3736503122       11.1733177011       -1.3718310780
  H        -1.7553396548        9.7307730425       -2.0099873717
  S         5.7797184107       14.1776224258       -1.8067115506
  C         5.1831481566       16.7446322411       -2.2811886050
  H        -3.2865869656       12.4473128669       10.0373944378
  H        -4.3278970836       12.8717161948       11.3948884007
  C        -4.6119028759       14.0312365371        9.6878183515
  H         6.4113770318       12.8385756539       13.1952645051
  H         6.0730648757       12.4372478892       14.9515937123
  C         7.2752749473       14.1372355057       14.7982944495
  S         0.0595601156        5.6063132920       15.0623595390
  N        -0.3885544884        6.0091418269       16.5721242522
  C        -0.3793747421        8.0173432253       17.9476185553
  H        -0.2845378477       10.0305524373       18.8298954198
  C         5.7410793057       14.9024594125       -3.3887080949
  N         5.6464500253       16.2346355032       -3.4437787646
  O         4.8191126280       17.8842898767       -2.1070418531
  H        -5.2449145818       14.6812148860       10.3566158997
  H        -4.1079076330       14.5436103937        8.9130540759
  C        -5.5745611126       13.0597470330        8.9751829214
  H         7.3899772656       14.0246426368       15.9206131429
  H         8.1585758203       13.7770858365       14.2364279158
  C         7.0888955863       15.6554587541       14.6367803070
  C        -0.7639022298        7.2049349518       19.0845567074
  S         6.2795735766       14.0362235939       -4.8662316186
  C         5.5682262592       17.0315657406       -4.7076128566
  H        -5.2284664791       12.9410854467        7.9947268286
  H        -5.6819565535       12.1298605722        9.4185165211
  C        -6.9118379052       13.5617000589        8.7478494606
  H         6.1651203474       15.8407850190       15.1239334305
  H         7.0964178116       16.0068496984       13.6488960251
  C         8.2459021956       16.4214046248       15.3128133417
  H        -0.5930500402        6.2016837555       18.9547305845
  C        -1.2197423219        7.5852707952       20.2954930296
  H         6.3374577990       16.6051647847       -5.4206047297
  H         5.8897271715       18.0365467559       -4.4849863046
  C         4.2332793155       17.0072735215       -5.4286021781
  H        -7.4696393015       12.9997112524        7.9360678549
  H        -6.8399631945       14.6435850461        8.4869613637
  C        -7.6983900419       13.5252388711       10.0735587090
  H         8.2100187641       16.3172887304       16.4115787550
  H         9.2192406589       16.0725235507       14.8955162872
  C         8.0971357298       17.9467881827       15.0650917287
  S        -1.8858190687        9.0968518261       20.7602062398
  C        -1.3521235036        6.5531090242       21.2694453272
  H         3.6656492580       16.0825293089       -5.2371359164
  H         4.2492282609       17.0756425191       -6.5104357673
  H         3.4388409374       17.7235539855       -5.1796339653
  H        -7.3673033357       14.1881305670       10.8874474146
  H        -8.6530230617       13.9523408479        9.7822125708
  H        -7.9055938105       12.5240875913       10.5236108082
  H         8.4553690287       18.1651881606       14.0962636233
  H         7.0352133721       18.2504529796       15.2081945534
  H         8.6991077568       18.3607598435       15.7524848323
  C        -2.2054611294        8.3499644297       22.2984185744
  N        -1.9316492740        7.0330913799       22.3349548260
  O        -1.0815255729        5.3626235830       21.0448424524
  S        -2.9252102893        9.0798970254       23.7297924989
  C        -1.9612262719        6.1635366905       23.5220676564
  H        -2.3075758865        5.1164880038       23.3490777596
  H        -2.7066255850        6.5031380402       24.1935393097
  C        -0.5252044190        6.0712724947       24.1945974099
  H        -0.5909590938        5.5008973994       25.1857487698
  H        -0.2382166542        7.0586777178       24.4152313319
  H         0.1718720143        5.5659414077       23.5869996640
