352
i =
  H        -3.0309589595       15.1439148203       16.2698022559
  C        -3.0396342503       14.0845837968       16.2726266078
  H        -3.9779797424       13.8989429621       16.7389409629
  C        -1.9195471939       13.5499711062       17.2017700177
  C        -2.9878822753       13.3868736669       14.8733224043
  C        -2.0884891895       14.0337909522       18.6966976376
  H        -2.0199403073       12.4752332709       17.2424255981
  H        -0.8931916335       13.8170361507       16.8839898740
  H        -3.3287064785       12.3947362904       15.0326252382
  H        -3.7889088610       13.8543439192       14.4151323096
  H        -1.9936278404       13.4732678847       14.3466835626
  C        -1.8212904817       12.8957024574       19.7243238326
  H        -3.1396065130       14.3524185009       18.9677960810
  H        -1.4220828295       14.8127807885       18.9384466155
  C        -2.3200151507       13.1734882799       21.1418407080
  H        -2.3620500433       12.0419477223       19.3968694157
  H        -0.7451466085       12.6734410383       19.6380260307
  C        -1.4409521853       12.7611384334       22.3243202211
  H        -3.2711133838       12.6184286100       21.3050851018
  H        -2.4318750657       14.2192203509       21.1803325506
  C        -0.2046227524       13.6049440434       22.5084063951
  H        -2.0354383844       12.7669390156       23.2495456217
  H        -1.1292571629       11.7190112085       22.1017234457
  C         0.9071128465       12.9420681549       23.2607682080
  H         0.1401672660       13.9141414870       21.5983183251
  H        -0.4417378594       14.5473282482       23.0105312391
  C         1.2497809174       11.5795684985       22.6578736204
  C         0.5410364498       12.3004889353       24.5441086037
  C         2.2228515893       13.8121583113       23.4261332678
  C         1.0108863268       10.5174638248       23.4695547908
  C         1.7675758251       11.1683497499       21.4330363238
  C         0.5571708400       10.9718822331       24.6516489576
  C         0.0802292113       13.0144315691       25.6601051670
  H         2.5353895566       14.2267563705       22.5559850761
  H         2.0103378013       14.7029482043       24.0850015225
  C         3.4098893972       13.0060597073       24.0081620962
  S         1.3115244237        8.9841891708       22.8032682750
  C         1.8222573844        9.7679044709       21.3695808373
  H         2.0749003632       11.8983551986       20.6579196608
  C         0.1426796253       10.4119633046       25.7798688311
  H         0.0462515303       14.0504691302       25.4932125430
  C        -0.3053078202       12.3770944153       26.8563112714
  H         3.5878408342       12.0175264945       23.6482700497
  H         3.3741716259       12.8773948305       25.0734689332
  C         4.7576029195       13.7845328989       23.9090803251
  C         2.3453655302        8.9758308301       20.1200471324
  C        -0.2774843588       11.0460272402       26.9467312108
  H         0.1633150550        9.3466323318       25.8660533172
  C        -0.7197686867       12.7966955560       28.0637159672
  H         5.4363720755       13.0806586941       24.4489577073
  H         4.8434067762       14.6824751812       24.4576631948
  C         5.3129086323       13.8885374545       22.4922716886
  C         2.2912436749        7.5825892413       20.0041718503
  C         2.9598447215        9.7756194750       19.0689245069
  C        -0.7108450511       10.4066436083       28.2550403890
  C        -0.9392046715       11.7381254349       28.9397475380
  S        -1.1407348518       14.3586186721       28.6700314683
  H         6.3097893767       14.4728729804       22.5527356556
  H         4.5565800320       14.4677899771       21.9402282938
  C         5.6914149436       12.6076781298       21.7901765774
  N         1.9175957210        6.6820435161       21.0222671534
  C         2.6056566711        7.0211574317       18.7801990113
  C         3.1656528449        9.1606247742       17.8493584754
  H         3.3306099124       10.7901154226       19.1945014967
  C         0.3540515209        9.4967460514       28.9708751972
  C        -2.0499902104        9.7069454360       27.9410370685
  C        -1.2656324617       12.2864575794       30.2370190905
  C        -1.3087891645       13.6601333290       30.2175952857
  H         6.6450047727       12.2549042812       22.2073748528
  H         4.9939955683       11.8653040744       21.9081420442
  C         6.0255734153       12.8211708864       20.4154902360
  S         2.0937414626        5.1936111577       20.3406489758
  N         2.6110052149        5.6324306727       18.8512209076
  C         2.9387084216        7.7231367732       17.6117381078
  H         3.5754068412        9.7715482437       17.0489696196
  H         0.6194294927        8.6865135728       28.2886731880
  H        -0.1026746519        9.0648676797       29.9246873644
  C         1.6762499787       10.1853701563       29.4633733475
  H        -1.9574941735        8.8261698390       27.3483460912
  H        -2.4482507371        9.3967379483       28.8870576510
  C        -3.0811854165       10.5852104427       27.1553504613
  H        -1.4115405534       11.6010524261       31.0451582429
  C        -1.5370503858       14.5232088503       31.4108005894
  H         5.4600138899       13.6800760141       20.0821252319
  H         5.6789161972       11.8947431491       19.8266515192
  C         7.5368308355       12.8958770522       20.2448819189
  C         3.1151083308        6.9809781132       16.4230476753
  H         2.1535694898       10.8037568549       28.7648715150
  H         1.3975312350       10.8932271737       30.1978867095
  C         2.6955462283        9.2397078447       30.0471689857
  H        -2.7577634604       10.9888523119       26.1604650275
  H        -3.2690335234       11.4001285725       27.8240342811
  C        -4.4234955812        9.9084600791       27.0629423790
  C        -1.7850560571       15.9277439932       31.3740159554
  C        -1.5430802756       13.8439904560       32.7278472483
  H         7.9056382178       13.6208008560       20.9781398529
  H         7.9419255468       11.8975219957       20.4063362627
  C         7.8498453727       13.3143716024       18.8179851027
  H         2.9172793710        5.9367199030       16.5062868158
  C         3.4503706213        7.3656082822       15.1653965834
  H         2.7841053923        8.4641139404       29.3411799926
  H         2.2988155777        8.8755541880       31.0093179147
  C         4.0006455380        9.8468873844       30.2192952910
  H        -4.4673111305        9.3313976579       26.1998797026
  H        -4.5752846744        9.2077976613       27.8603932416
  C        -5.5024499062       10.9483183085       27.2821090046
  N        -1.4446844364       16.8229468569       30.3229571741
  C        -2.1363851183       16.6361838961       32.4794481534
  C        -1.9038039928       14.5862147053       33.8395371428
  H        -1.3303277832       12.8264862558       32.9752737632
  H         8.8876305461       13.3876820570       18.7272886615
  H         7.4920138909       12.5251412588       18.1498464944
  H         7.2853266752       14.2029802879       18.5088732507
  S         3.7864628490        8.9961523648       14.6299383028
  C         3.4778296030        6.3232531632       14.1246275981
  H         4.1193586693       10.5778449824       29.4519567621
  H         3.8598879336       10.4621665756       31.1144104069
  C         5.1973456759        8.9588095531       30.1746212660
  H        -5.2149812810       11.6944749372       26.5330057655
  H        -5.3143147096       11.3157435450       28.2570229158
  C        -6.8553970463       10.3680259286       26.9669675892
  S        -1.7540234650       18.3563919588       30.7034016291
  N        -2.1363030454       18.0953902922       32.2516627148
  C        -2.2005456767       16.0593086484       33.7999603042
  H        -2.0209226253       14.0888622015       34.8079546600
  C         4.0645271013        8.2928300622       13.1154038725
  N         3.7740981160        6.9505754855       12.9891588015
  O         3.0799059879        5.1728531350       14.2496943912
  H         6.1492618017        9.4584549768       30.0231714477
  H         5.1092022719        8.3808490193       29.2254795270
  C         5.2852055037        7.9214807831       31.3495489504
  H        -6.8197479564        9.2301137277       27.1331820115
  H        -7.5574213013       10.8120258035       27.6387034986
  C        -7.3297438072       10.6774816461       25.6298496738
  C        -2.4992223729       16.8674577280       34.8731987935
  S         4.5621465415        9.2015560448       11.5873079758
  C         3.7582926522        6.2661362057       11.6424991669
  H         5.5304401522        8.4504742033       32.2407671257
  H         4.3216864904        7.4118277728       31.5146740139
  C         6.3640699494        6.8810963007       31.0308850908
  H        -6.6722658143       10.2037810170       24.8373405470
  H        -7.5179622846       11.6627523580       25.5691721407
  C        -8.6800095098        9.9995376342       25.2589346467
  H        -2.1519225519       17.9289952521       34.7616291838
  C        -2.9114023623       16.5153524052       36.1367428359
  H         4.4136807263        6.6899617163       10.9325574659
  H         4.2651643159        5.3151684021       11.8519846037
  C         2.3438119643        6.2306933488       11.0027162331
  H         6.5991709693        6.4116984421       32.0135581725
  H         7.2697821419        7.3947306649       30.7109803889
  C         5.8795344160        5.7476380004       30.1102434126
  H        -9.1726606023       10.4947523271       24.4692498972
  H        -8.3560446911        8.9831955793       24.9200295115
  C        -9.7673572030        9.9675974014       26.3715079340
  S        -3.4317289762       14.9406309065       36.6969138124
  C        -3.0006430225       17.6012741229       37.1519082562
  H         2.2191530127        7.2283005993       10.5856578498
  H         2.2498726238        5.5350116528       10.2007758565
  H         1.4332925870        5.9924562185       11.5536505973
  H         6.5314042261        4.7790492328       30.1466721591
  H         5.8150966473        5.9878307195       29.0161052286
  H         4.8088122938        5.4879047661       30.3190461664
  H        -9.4739607863        9.5729865196       27.3292891155
  H       -10.6379457320        9.4338802731       25.9571069553
  H       -10.2081622935       10.9907085014       26.5371179089
  C        -3.4864214570       15.7139427276       38.3149269683
  N        -3.4078928070       17.0575769341       38.2993359724
  O        -2.6493680487       18.7714923962       36.9633852380
  S        -4.1223849984       14.9442126455       39.7722895757
  C        -3.3867011741       17.9243212858       39.4668066887
  H        -3.5339950705       19.0010747304       39.2247341122
  H        -4.1721614572       17.7398191243       40.1551605453
  C        -2.0163750061       17.9331469977       40.2081393961
  H        -1.1587703014       17.6934028685       39.5008682255
  H        -1.7606753665       18.9125550038       40.5559394961
  H        -1.9967064368       17.1547673603       41.0525344822
  H         7.1056170520       11.0626889854        3.6552858821
  C         7.8072901129       10.2137448625        3.6375665333
  H         7.1974354076        9.3298780578        3.6906625916
  C         8.5842059858       10.1722610196        5.0324462735
  C         8.8742359434       10.1176596891        2.5513490223
  C         7.7189335822       10.5222308969        6.2269754881
  H         9.1750362783        9.2479479688        4.9580859552
  H         9.3304306022       10.9532312260        5.0344882432
  H         8.5898330314       10.3507105577        1.5647796583
  H         9.3476500448        9.0913975775        2.6368843131
  H         9.7688144135       10.7199957589        2.7881797664
  C         7.3407098247        9.3233816569        7.0549395420
  H         8.1475678701       11.3325936868        6.9098089614
  H         6.8546147704       11.0540859711        5.8431882838
  C         6.7217784055        9.7069811780        8.4347629783
  H         8.3112370495        8.8766589219        7.3021499684
  H         6.7703522118        8.5763833291        6.4287084875
  C         5.4955078299       10.5731173448        8.3256260280
  H         7.4013829246       10.2274348646        9.0609640983
  H         6.2824554562        8.8718921216        8.9220430680
  C         4.3369964946        9.8278301675        7.5626747230
  H         5.2651693099       10.8413293838        9.3633563534
  H         5.6650970056       11.5384528661        7.8276180668
  C         3.0823594473       10.6295955033        7.2115071848
  H         4.0968373351        8.8856668257        7.9994769652
  H         4.7563056229        9.4708946005        6.5717350376
  C         3.5036357464       11.9695987781        6.6185369376
  C         2.5369560667       11.2962233400        8.5106994394
  C         1.9857034516        9.9204745751        6.3387061993
  C         3.0489457111       13.0700318216        7.3681229301
  C         3.8673025215       12.3461597463        5.3274391217
  C         2.4812212411       12.6525056864        8.5827786376
  C         2.0720243585       10.6622134888        9.6547345610
  H         2.5283897006        9.4634038598        5.3975388126
  H         1.5910800019        8.9878746170        6.8113082975
  C         0.8351587700       10.7817582710        5.8478986385
  S         3.3529919156       14.5548189043        6.6280117577
  C         3.9602657975       13.7031081787        5.2578631792
  H         4.0784162114       11.5643438876        4.6175025820
  C         2.0107909201       13.2606755281        9.7283917801
  H         2.2360112146        9.5936099720        9.6702858778
  C         1.6256099515       11.2324018990       10.8251855022
  H         1.2039416642       11.6257423738        5.3027689332
  H         0.4731959950       11.0139797251        6.8305394350
  C        -0.1859712821        9.9646513016        4.9864829990
  C         4.3635671146       14.4076448145        3.9985567905
  C         1.5853051273       12.6188200222       10.9103722815
  H         1.9377250536       14.3586259195        9.8107507839
  C         1.1901176127       10.8504398958       12.0756230103
  H        -1.1384924777       10.5569337217        4.8989794953
  H        -0.4650986430        9.0875568083        5.5136155218
  C         0.3860193901        9.6926557415        3.6282862012
  C         4.3179658817       15.7792122348        3.8307688774
  C         4.8381049712       13.5639019159        2.8701422570
  C         1.1017670193       13.2952769283       12.1545878491
  C         0.8414003777       11.9279335337       12.8474278022
  S         0.9231205537        9.2841592600       12.7805876596
  H         0.8968643694        8.7639282472        3.4185744369
  H         1.0401195319       10.4972268705        3.2853242907
  C        -0.7821945695        9.5806856309        2.6287971888
  N         4.0408582959       16.7343088436        4.7747269534
  C         4.3342259936       16.3325014795        2.5593111104
  C         4.8783228993       14.1481849765        1.5970130106
  H         5.1210721832       12.5836629702        2.9679796123
  C        -0.1642942345       14.1723755645       11.8873466868
  C         2.2155736582       14.1018290111       12.8798112137
  C         0.3384210576       11.4485902030       14.0542208960
  C         0.3764154024       10.1145607193       14.1915235132
  H        -1.3434423533        8.7040299243        2.9446845930
  H        -1.4578616628       10.4094182154        2.6951686469
  C        -0.2962241485        9.3373047006        1.1516487081
  S         3.7617885615       18.2016755502        4.1485085493
  N         3.9379239074       17.6894458035        2.5775261299
  C         4.6598164098       15.6260077548        1.3744317332
  H         5.2531823504       13.4432291520        0.9079314448
  H         0.1102821579       14.9777859682       11.2185157801
  H        -0.4178085776       14.6482008323       12.8360600754
  C        -1.3759894432       13.5722217413       11.2578869829
  H         2.6296953262       14.7273020027       12.1107113304
  H         1.6928171647       14.6013640084       13.7170354742
  C         3.4093754126       13.3589452298       13.4409990867
  H        -0.0647355299       12.1628746506       14.7526928149
  C        -0.0341148224        9.3715675423       15.3854605666
  H         0.2400294526        8.3681709391        1.0407621063
  H         0.3447818836       10.1194236702        0.8073453418
  C        -1.4650950546        9.2942422172        0.1844180670
  C         4.7469066597       16.2304068382        0.0927569409
  H        -0.8852441111       13.0340772649       10.3794519080
  H        -1.8219464613       12.8394447527       11.9247648277
  C        -2.4329327333       14.6343968205       10.9194281824
  H         4.0212939066       13.0750061130       12.6371254946
  H         3.1571924946       12.4348615106       13.9484146859
  C         4.3191858539       14.1809214458       14.4314682341
  C        -0.1693936886        7.9926829001       15.5142116126
  C        -0.2275816173       10.1243776766       16.6495736449
  H        -1.4156476698        8.4355411101       -0.4656479811
  H        -2.4381498031        9.2840304872        0.6373054535
  C        -1.5499714108       10.4785418748       -0.8073501285
  H         4.5168060035       17.2677444108        0.1141963181
  C         5.1101551978       15.7868252703       -1.1268743475
  H        -1.9259973535       15.4580939984       10.3464245676
  H        -2.8626656938       14.9657748308       11.8348590734
  C        -3.4530461183       14.0153407091        9.9503494333
  H         4.8639278815       14.9080761982       13.8159551525
  H         3.6350089102       14.7645570414       15.0813644180
  C         5.3069896785       13.2652788892       15.2075333373
  N         0.0242586521        7.1153743997       14.5171088095
  C        -0.4970595409        7.2992308455       16.6496028838
  C        -0.5528233112        9.4636558141       17.8135793870
  H         0.0771979959       11.1666768600       16.6021872431
  H        -2.0918186408       10.2353573033       -1.7205076284
  H        -0.5965848452       10.7441744950       -1.1785283030
  H        -2.0297149411       11.3053865456       -0.3264679589
  S         5.4266217998       14.1298251043       -1.5757104662
  C         5.0863228372       16.7524185032       -2.2733600053
  H        -3.8805463741       14.7365748103        9.2248544362
  H        -2.9565192268       13.3393334866        9.2780344054
  C        -4.7110505102       13.4543313460       10.6329581458
  H         4.9660039935       12.2285004516       15.3320232475
  H         5.5321185062       13.5349124994       16.2152087892
  C         6.6678400101       13.2024708674       14.4940155149
  S        -0.1840582311        5.5152419761       15.0098684007
  N        -0.5938611960        5.9093245185       16.5350513352
  C        -0.6814551073        7.9753758475       17.9207435005
  H        -0.5963865369        9.9950203089       18.7068197982
  C         5.6803146764       14.8122452839       -3.2434663625
  N         5.4318524966       16.0967914841       -3.3976404803
  O         4.7844480272       17.9622805420       -2.1474478394
  H        -4.3503582099       12.8348351483       11.4471011027
  H        -5.3537656237       14.2388576764       11.1021551478
  C        -5.6073890449       12.5061329037        9.8072411125
  H         7.2580929405       12.3781698636       14.9887687060
  H         6.4607187430       12.8367961089       13.5397652609
  C         7.4059374248       14.4966500844       14.3573637662
  C        -1.0049882536        7.2257884966       19.0536727422
  S         5.9847351843       13.8864342101       -4.6584049303
  C         5.4022962764       16.8010557810       -4.7246172486
  H        -5.0575080259       11.7021609388        9.2824357896
  H        -6.2355502881       12.0608602491       10.5296240782
  C        -6.4243397384       13.2856877253        8.7596875465
  H         7.0079524733       15.0500415490       13.5476513788
  H         8.3946898987       14.1673767459       14.0838397631
  C         7.5579155672       15.4590190895       15.6089566212
  H        -0.9648125855        6.1994058132       18.9255536005
  C        -1.4760836047        7.6517771789       20.2467639860
  H         6.1067830228       16.3686482505       -5.4292737952
  H         5.7114330531       17.8002983660       -4.6428914926
  C         3.9725542520       16.7843592726       -5.2462732937
  H        -6.5580056856       12.7196954062        7.8981644723
  H        -5.8959929486       14.1544091287        8.3631381937
  C        -7.8083321133       13.6687727809        9.2220241437
  H         6.5507601338       15.7835704253       15.7446234133
  H         7.9316581363       14.9358913988       16.5132563110
  C         8.7128065264       16.4718155522       15.2832698477
  S        -2.0257662364        9.1200152386       20.7528635855
  C        -1.5491238074        6.5752890056       21.2459701974
  H         3.4009857601       15.8309441386       -5.5228024957
  H         4.0669225686       17.3452848535       -6.2149773984
  H         3.3543604409       17.3374773686       -4.5758528074
  H        -7.9757773324       13.4169243450       10.2514620886
  H        -7.9248326239       14.7234430563        9.1377927604
  H        -8.5444545346       13.1401210460        8.6034944962
  H         8.7834060458       17.1331571325       16.1436394930
  H         9.6555547440       16.0555171999       14.9907359898
  H         8.4411848985       17.1116252736       14.3708219776
  C        -2.3342618020        8.4171719750       22.3274306141
  N        -2.1155887156        7.1216138837       22.3686143222
  O        -1.2466914017        5.4009010545       21.0656500855
  S        -2.8612511322        9.4172217590       23.7623698295
  C        -2.2083390213        6.3543268263       23.5446224193
  H        -2.1973577387        5.2525828356       23.3278814077
  H        -3.0936994536        6.5937620491       24.1428142900
  C        -0.9295074654        6.5284097775       24.4127864206
  H        -1.0726232815        6.1932576818       25.4384876249
  H        -0.5574370389        7.5831812286       24.5388402325
  H        -0.0629351686        5.9789604783       23.8904130252
