352
i =
  H        -2.8381685459       15.8117379037       16.2679964705
  C        -3.0996031400       14.7332388743       16.1690905516
  H        -4.1012854598       14.6202286661       16.4434438605
  C        -2.2931648250       14.0340223806       17.2814254587
  C        -2.8422182057       14.1364461508       14.7701027675
  C        -2.9979535218       13.8659795121       18.6006087310
  H        -1.9367478902       12.9530320858       16.9090976847
  H        -1.3236770236       14.6193497817       17.5168177605
  H        -1.7194145853       14.0907010555       14.5457650236
  H        -3.4006898907       13.1419528907       14.7059998231
  H        -3.2844429992       14.7773077932       13.9830883836
  C        -1.9396924840       13.3247883023       19.6191169053
  H        -3.8206030363       13.1404514530       18.5199237469
  H        -3.4484756509       14.7704641737       18.9770890716
  C        -2.4352343530       13.3194156486       21.0333051214
  H        -1.7611954896       12.2532356152       19.4523812729
  H        -0.9917958120       13.8551593460       19.5400131191
  C        -1.3923190776       12.8609115044       21.9976870243
  H        -3.3393258445       12.7570236730       21.2162125723
  H        -2.6125283272       14.3737143622       21.2208022097
  C        -0.3273209755       13.9066863903       22.2712525661
  H        -1.8929146490       12.7495699380       22.9366030684
  H        -0.9962140372       11.8592186211       21.6507540700
  C         0.9049795685       13.2677053325       23.0330952399
  H         0.1042335905       14.4635965532       21.3881587096
  H        -0.8130368858       14.5024981718       22.9865409170
  C         1.3753865978       11.9660344538       22.4006373971
  C         0.5678729307       12.4966417279       24.2844950252
  C         2.0725532255       14.2631401074       23.2584868662
  C         1.1308149225       10.8098025122       23.1351755176
  C         1.9645003093       11.6255995051       21.1900331988
  C         0.6526285200       11.1580447789       24.3544286121
  C         0.0766448201       13.1412127564       25.4554570140
  H         2.1046947874       14.8923517071       22.3568764029
  H         1.7456056386       14.8730536435       24.0687058294
  C         3.4002318026       13.5265659325       23.5674498288
  S         1.6809519123        9.3041168487       22.4465568667
  C         2.1318448651       10.2704295628       21.0715410825
  H         1.9596207650       12.3895454333       20.3905022524
  C         0.2845339063       10.4720973120       25.4810832101
  H        -0.0991836145       14.2368066924       25.3944892487
  C        -0.1251701820       12.4525736408       26.6375779238
  H         3.7282412034       12.7555485105       22.8768276677
  H         3.2311158255       12.8917109268       24.4515002276
  C         4.5539315756       14.5327991674       23.7428746805
  C         2.6244776572        9.6596002923       19.7758632976
  C        -0.0075383466       11.1050783364       26.6947894390
  H         0.3145849790        9.3936437583       25.3695027598
  C        -0.4130227086       12.8609408115       27.8664874978
  H         5.2535222644       13.8426302479       24.3319232246
  H         4.3423059772       15.3424202296       24.4289418888
  C         5.1831546100       14.9850557064       22.4350327492
  C         2.6334969627        8.2939201230       19.3714098197
  C         3.0979434838       10.5398319424       18.6978013884
  C        -0.3821755022       10.4833800964       27.9899194757
  C        -0.6219208071       11.7920096158       28.6975817982
  S        -0.5533232536       14.3690406114       28.5923811258
  H         6.0071986492       15.6321896706       22.6855271450
  H         4.4422338858       15.5867280774       21.8806934419
  C         5.8867593584       13.8905123644       21.5763472299
  N         2.4972948446        7.2193865057       20.2551782986
  C         2.9858663458        7.8204293783       18.1637158673
  C         3.4291674482       10.0785569187       17.4399341667
  H         3.1836617953       11.5861888390       18.8652755315
  C         0.6879160645        9.6048583516       28.6897991739
  C        -1.7030758829        9.7858743487       27.8590802822
  C        -0.9586368032       12.1573768360       30.0087647151
  C        -0.9704848398       13.5287142710       30.1247970342
  H         6.9492232293       14.0696186266       21.6001134284
  H         5.7098946967       12.8574256835       22.0656070606
  C         5.6517821783       13.8098781133       20.0924455034
  S         2.6047214388        5.8842389311       19.4422952285
  N         2.8886747897        6.4731658875       17.9849833967
  C         3.3059712184        8.6758656286       17.0709921594
  H         3.5991738950       10.8012018645       16.7286542471
  H         1.0792418439        8.8194612788       28.0244353055
  H         0.3504088079        9.0414413360       29.5235190287
  C         2.0174828966       10.4664558946       28.9731987523
  H        -1.6414729677        8.7918049606       27.2748542762
  H        -1.7579371198        9.5472202307       28.8643157967
  C        -2.9212502646       10.6229800388       27.3942596959
  H        -1.1066614752       11.4250826720       30.7650356955
  C        -1.1672205895       14.3504532696       31.3848400188
  H         5.0987473269       14.6220626977       19.6488701252
  H         5.0041436062       12.9917005191       19.8211426522
  C         6.9560112432       13.6650539435       19.2546430929
  C         3.5742050888        8.1307868610       15.7958168169
  H         2.2344746016       11.0588269924       28.0813242235
  H         1.6772472278       11.2630978015       29.7130236220
  C         3.1226800082        9.5863309039       29.5184906673
  H        -2.7185966124       11.0727283936       26.4196233472
  H        -3.1769280870       11.4064360414       28.0934278399
  C        -4.1530425966        9.6777231519       27.1366301451
  C        -1.3480792675       15.7785955069       31.5172253206
  C        -1.2372095752       13.5252358121       32.6338793195
  H         7.6168070742       14.4199025609       19.6306836776
  H         7.4689632212       12.7471778882       19.5080684658
  C         6.6680287038       13.9529349873       17.8123774257
  H         3.3754796177        7.0815738624       15.6555078555
  C         3.9632264860        8.6162633200       14.5797304710
  H         3.2348836361        8.6629646474       28.9291908608
  H         2.8177174406        9.2222047416       30.5282813805
  C         4.3916318763       10.2966953770       29.7605264640
  H        -3.7360535529        8.7638133700       26.6783269658
  H        -4.5539212811        9.1877937161       27.9879128402
  C        -5.1945332758       10.4751863097       26.3302748854
  N        -1.2210134086       16.6745343749       30.4865881202
  C        -1.4838585819       16.3617799127       32.7278994101
  C        -1.3800433339       14.1228197176       33.8408588248
  H        -1.1939868089       12.4600610034       32.5127592888
  H         5.7845479458       14.4993280812       17.5213340814
  H         7.5528163837       14.5223672045       17.4546105037
  H         6.5058443902       12.9716386243       17.3201474170
  S         4.4025932678       10.2569144601       14.2297928879
  C         4.0449595433        7.6745854971       13.4340544262
  H         4.3348713715       11.0803546366       29.0235302266
  H         4.3478060697       10.9139549385       30.6540694988
  C         5.6184536687        9.3799435620       29.4586282619
  H        -4.7265043846       10.7551580172       25.4001358614
  H        -5.4979468409       11.4121729158       26.8028973840
  C        -6.4570316735        9.6199347973       26.1390273638
  S        -1.2094863288       18.1792760506       31.0784915556
  N        -1.5660025396       17.7148707042       32.6642722955
  C        -1.5376009397       15.6148419789       33.9167397907
  H        -1.3542588158       13.5717068277       34.7465214910
  C         4.5093096774        9.6400172635       12.5650334583
  N         4.4291080910        8.3010419419       12.3242091855
  O         3.8436905150        6.4709942115       13.4825742644
  H         6.5208044727        9.9536623872       29.5444715506
  H         5.4593509223        9.0269491787       28.4386153169
  C         5.5941324671        8.1321638571       30.3753300122
  H        -6.3352226047        8.7324168207       25.5929711342
  H        -6.8589377143        9.4925988735       27.1027664460
  C        -7.3709560800       10.4759292487       25.3444764407
  C        -1.9280132027       16.2182253509       35.0666651080
  S         4.8550140478       10.6683119946       11.1940811205
  C         4.5188853396        7.6484807905       10.9515961470
  H         5.9782697555        8.3725703022       31.3620914422
  H         4.5985290369        7.7829664300       30.5585590237
  C         6.2208904032        6.9825743837       29.6728710685
  H        -6.9322002371       10.7307213606       24.3930879032
  H        -7.5819428673       11.4515917728       25.7594906505
  C        -8.6330005773        9.8698379501       24.8387907433
  H        -1.9435615072       17.2653634402       35.0229661132
  C        -2.4929509086       15.8702372357       36.2469452422
  H         5.3121658788        8.0376469061       10.2950577503
  H         4.7881229192        6.6265925859       11.0654795619
  C         3.1570394650        7.5629315146       10.3484025859
  H         6.9975306542        7.2841650338       28.9651602031
  H         5.5256875529        6.3730440262       29.0607420757
  C         6.9330139866        6.1603407934       30.7608588834
  H        -8.9132405269       10.2094985840       23.8734436400
  H        -8.3920201777        8.8314628221       24.7174732914
  C        -9.8035940541       10.2097074093       25.7910573286
  S        -2.8021497557       14.2464785449       36.7127812447
  C        -2.7746873500       16.8915929858       37.2626827342
  H         3.2832473026        7.6200858623        9.2631118620
  H         2.6906046612        6.5961040647       10.5152876769
  H         2.4619051595        8.3032575603       10.7591823837
  H         6.2260912101        5.8841440346       31.5231786910
  H         7.8155563631        6.5507029558       31.2033915442
  H         7.1922055370        5.2597824654       30.1897263408
  H        -9.6707227518        9.8536577281       26.8728127966
  H       -10.6906767036        9.5925261408       25.5245763156
  H       -10.0414285223       11.2467035168       25.7596278725
  C        -3.3497837116       14.9558813026       38.2345558500
  N        -3.3819637713       16.3106419951       38.2963939535
  O        -2.5761121293       18.1413682070       37.0903581182
  S        -4.1112044046       14.0737861315       39.6274837670
  C        -3.8605672459       17.0304167375       39.4555909842
  H        -4.1509145560       18.0459372218       39.1901597054
  H        -4.7431861441       16.6796784054       39.9934401802
  C        -2.6706474754       17.2627938669       40.3904147242
  H        -2.3367876062       16.3406097658       40.9443524546
  H        -1.8803691772       17.7693659925       39.7559619768
  H        -3.0173494441       17.9748890373       41.2093257848
  H         7.6488937176       11.8706927347        3.3510891023
  C         8.1083808682       10.8977874425        3.3889353345
  H         7.1784717828       10.3157315630        3.5222644460
  C         8.9822595277       10.7354195547        4.5992840200
  C         8.8174846115       10.6230836496        2.0484391812
  C         8.1178294841       11.0504817930        5.8512049509
  H         9.2416839357        9.6837121373        4.6770432309
  H         9.8703122353       11.4103218080        4.4972028017
  H         9.6780674568       11.3515503280        1.9802106644
  H         8.1444839947       10.7770624147        1.2424918634
  H         9.2747646853        9.6521450909        1.9542858678
  C         7.7195468112        9.6993234795        6.5244004041
  H         8.7324167157       11.6854322632        6.4949661599
  H         7.2287749444       11.6925664302        5.5211456655
  C         6.7601712194        9.9821994360        7.7147205467
  H         8.5560523065        9.1408882519        6.9170429182
  H         7.2115384707        9.1073680764        5.7510211849
  C         5.5117449511       10.8885787851        7.6309413220
  H         7.3223121955       10.2420668661        8.5894829330
  H         6.4328414906        8.9679249414        8.0126796040
  C         4.3469827511       10.2331863958        6.9334290700
  H         5.2390552028       11.2657533931        8.5998035391
  H         5.6954318371       11.8096734769        7.2378733745
  C         3.1415148009       11.1806606019        6.6318236962
  H         3.9514804581        9.4343010493        7.5300078573
  H         4.7511324923        9.8561454957        5.9910221437
  C         3.4626594342       12.5060552291        5.9053010320
  C         2.6870645069       11.8801580820        7.8595581585
  C         1.8998579835       10.4519173605        6.0276371629
  C         3.1880258323       13.5589672673        6.7827525766
  C         4.0004784763       12.8649053670        4.6378409374
  C         2.7516300363       13.2143383499        8.0399672246
  C         2.2023176681       11.2619962866        9.0024274353
  H         2.2218432437        9.8125141612        5.2334126561
  H         1.3887112641        9.7286574113        6.6852008434
  C         0.7738775018       11.3990836782        5.6452566018
  S         3.4369987376       15.0382933641        5.9580252954
  C         4.0867743459       14.2235085989        4.5650906631
  H         4.2938760620       12.1590081777        3.8380840908
  C         2.2958420548       13.8729864245        9.1625245216
  H         2.1534978793       10.1583828191        8.9783206552
  C         1.8385466446       11.8912929676       10.1558382557
  H         1.1295918628       12.2859515145        5.0977958966
  H         0.2525128930       11.6893600813        6.4739120300
  C        -0.2477759353       10.7355859024        4.7926524768
  C         4.6410817330       14.8949834543        3.3429123881
  C         1.8212443367       13.2367434500       10.2936050256
  H         2.2017656139       14.9592133652        9.1079724767
  C         1.4373490245       11.4725819932       11.4317794350
  H        -1.1624204784       11.2922129081        4.9356263669
  H        -0.3650935867        9.7333480208        5.2786706897
  C         0.1968731454       10.4186514380        3.3658776501
  C         4.5195153342       16.2719978673        3.0585228788
  C         5.2971274338       14.0288768919        2.3557936525
  C         1.3572663494       13.9394508098       11.5833860138
  C         1.0561605038       12.5601893424       12.2377998722
  S         1.1997106690        9.9948115998       12.1978815940
  H         0.8487273255        9.5822806786        3.3102561236
  H         0.8463595536       11.2823755477        3.0932922489
  C        -1.0513567586       10.2377576992        2.4282331489
  N         4.0197162154       17.1897974571        3.9181812658
  C         4.7808612561       16.7253479735        1.8045824820
  C         5.5799850099       14.5353649997        1.0953409926
  H         5.7121840323       13.0870635640        2.6266805823
  C         0.1638724215       14.9457044637       11.6912288780
  C         2.5724435264       14.6147520821       12.3112109096
  C         0.5503988315       12.1518771993       13.4703297264
  C         0.6041982713       10.7474704064       13.5635763782
  H        -1.8078855063        9.5914164313        2.7631108889
  H        -1.5608593887       11.1595563402        2.0404465091
  C        -0.6819106093        9.4354520246        1.1659530634
  S         4.0968932484       18.6628558212        3.1170139820
  N         4.5677021688       18.0936732199        1.6816519478
  C         5.3362338125       15.9157258357        0.8034913069
  H         5.9818395593       13.8044699080        0.3941296416
  H         0.2668942789       15.8899720992       11.0912781839
  H         0.0834987840       15.2643195360       12.7162100791
  C        -1.1448618043       14.0944707247       11.4504904649
  H         3.4959047046       14.5338349030       11.7376803265
  H         2.3046919368       15.6281845311       12.3484350390
  C         2.9162826427       14.1256178953       13.7486864460
  H         0.1028297584       12.8300797988       14.2321019076
  C         0.3914541896        9.9184241270       14.8722462666
  H        -1.4339974066        8.7319042659        0.9434992316
  H         0.1288003257        8.6764225635        1.3324747694
  C        -0.0978762024       10.2977630430        0.0374064079
  C         5.6073671111       16.5441818169       -0.4582452351
  H        -0.9058363012       13.4252671284       10.6443415544
  H        -1.3367103705       13.4928804759       12.3262277726
  C        -2.3725806507       14.8469908040       11.1929972315
  H         3.2743513619       13.1243843050       13.7564567844
  H         2.0129746119       14.1560086917       14.3065937172
  C         3.9198250981       14.9153856881       14.5129953672
  C         0.4301817941        8.5165401031       14.9494802032
  C         0.1454603727       10.6020082268       16.1842696368
  H         0.2437241840       11.2060487484        0.4811109990
  H         0.8445193369        9.9578871013       -0.2693653521
  C        -0.9973198521       10.8559891797       -1.1165003814
  H         5.3385187978       17.6316811940       -0.4555366799
  C         5.8941619485       16.0846404885       -1.7280043450
  H        -2.1960678851       15.4780389159       10.4044197402
  H        -2.5969206192       15.4370014893       12.0757988018
  C        -3.5109855121       13.8794581961       10.9099083424
  H         3.5555670340       15.8988550588       14.7000718509
  H         4.0181094502       14.3790558358       15.4712240163
  C         5.2884264829       14.9948784769       13.7548378222
  N         0.6162362942        7.6891015772       13.8486727904
  C         0.0140101156        7.9054725690       16.1213468125
  C        -0.0081448879       10.0057871821       17.3849132830
  H         0.2060549222       11.7118529163       16.1447746676
  H        -1.6698753046       11.6635959972       -0.7475081612
  H        -1.7040430062       10.0898125532       -1.4426728946
  H        -0.4139525342       11.1754104197       -1.9146674769
  S         6.2708174825       14.4768936261       -2.1491992100
  C         6.0313596517       17.1458130841       -2.7841084816
  H        -3.2339236603       13.0098588433       10.2586742625
  H        -3.9819500569       13.3690437217       11.7702075199
  C        -4.5840995467       14.5868548476       10.1568499215
  H         5.1867585499       15.6566615573       12.9184100844
  H         5.4524072385       13.9246985976       13.4017505004
  C         6.5016222384       15.3979646109       14.6203491928
  S         0.6005128171        6.1941903940       14.4191751570
  N         0.1277969565        6.4950583118       15.9675298483
  C        -0.3062130135        8.5389791466       17.3601222588
  H        -0.0345242695       10.5218308537       18.3689754928
  C         6.4014929465       15.1511119367       -3.7779055496
  N         6.2872716680       16.5040995425       -3.9401608923
  O         5.8972840799       18.3254491045       -2.5924657111
  H        -5.1448376429       15.1471279136       10.8538434636
  H        -4.1865902450       15.3478606658        9.4587377455
  C        -5.5278307852       13.6397613429        9.3843175691
  H         6.0855073767       15.9145531941       15.4516740358
  H         6.8869152047       14.4913872758       14.9620779551
  C         7.6046080303       16.1693560904       13.9074940699
  C        -0.6250350158        7.6203188649       18.4560846898
  S         6.5486595818       14.1467883957       -5.1772781455
  C         6.2925241634       17.2017206664       -5.2042962678
  H        -4.9286280103       13.3358088292        8.4704950859
  H        -5.8525793435       12.6810916380        9.9314645927
  C        -6.7335321321       14.2694811116        8.7113143835
  H         7.5275489913       15.9276121824       12.8444704692
  H         8.5510505879       15.7820055030       14.0360832287
  C         7.5984810188       17.6933284194       14.1683710076
  H        -0.3409856412        6.6513100147       18.3296541313
  C        -1.1554517018        7.8304798026       19.7257108323
  H         6.9283330614       16.7684943202       -5.8627328425
  H         6.8038032320       18.1858500563       -5.0381824182
  C         4.8159452510       17.3533396089       -5.6840726470
  H        -6.9684508460       13.8147084437        7.6998039016
  H        -6.4618849232       15.2728829187        8.3139898629
  C        -7.8420605253       14.2056118225        9.6614905427
  H         8.0064848714       18.1575082668       13.2902802087
  H         6.6073370648       18.1766910459       14.2356546279
  C         8.4053212945       18.0209604805       15.3934688169
  S        -1.5756183200        9.3598395573       20.3234309581
  C        -1.3287231591        6.6918036804       20.6921942273
  H         4.0793038977       17.5917258990       -4.8761496143
  H         4.4344912834       16.4409311120       -6.1545382985
  H         4.7423919057       18.1336381215       -6.4467370718
  H        -7.9281082380       13.1925478295       10.0716686530
  H        -7.7984811969       14.8719253086       10.4673982550
  H        -8.8126295951       14.4521196066        9.1948047791
  H         7.7683617853       17.9601940564       16.3382004329
  H         9.1753782605       17.3372422126       15.4450905235
  H         8.7201532666       19.0660571116       15.2606627434
  C        -2.1917810836        8.5194121749       21.7468090433
  N        -1.9858769708        7.2099187576       21.7265866608
  O        -1.0518017601        5.5236916312       20.4700643237
  S        -2.6265458955        9.4496908493       23.2279369153
  C        -2.0586005984        6.4027220104       22.9020623977
  H        -2.1126769522        5.3286425553       22.6193904570
  H        -2.9537045604        6.5969698219       23.5146829792
  C        -0.8958599187        6.6091333992       23.8272354536
  H        -1.1436439596        6.0740032934       24.8080245719
  H        -0.8371457179        7.7189039465       24.0546536838
  H         0.0435854282        6.1372274559       23.4782488199
