352
i =
  H        -0.9580987400       15.0523414318       15.6130411194
  C        -1.7715807765       14.4424430717       16.0520124589
  H        -2.5459086408       15.1369541051       16.3540890630
  C        -1.1664467925       13.5621284728       17.1658408000
  C        -2.3699976208       13.5947327092       14.9161291769
  C        -1.7947031564       13.9507142733       18.5277227184
  H        -1.4766410709       12.5393087704       16.9755076377
  H        -0.0566107784       13.6832271261       17.2668890173
  H        -2.0458012211       12.5264539745       14.8606492565
  H        -3.4484025083       13.5426615727       15.0366163919
  H        -2.0977899452       13.9887331249       13.9082638914
  C        -1.4153025116       13.0891394758       19.6328371788
  H        -2.8976322066       13.9771267889       18.4844448691
  H        -1.4391753166       14.9269068328       18.7423737967
  C        -1.7731159654       13.6025910126       21.0502870947
  H        -1.8611723359       12.1257986051       19.4976183262
  H        -0.3403834564       12.8787222338       19.5015843448
  C        -0.8529179290       12.8898842370       22.1238633061
  H        -2.8237959130       13.4208985496       21.1278249931
  H        -1.6223013206       14.6652193182       21.0566374918
  C         0.3231477190       13.8064089990       22.4865419885
  H        -1.5178405662       12.7269774377       22.9350868422
  H        -0.5424393471       11.9451063474       21.6146208982
  C         1.4222236011       13.0355368635       23.1910953913
  H         0.8145628420       14.3120085561       21.6603040430
  H        -0.0385954178       14.6197186211       23.1083608605
  C         1.8016301798       11.7403874026       22.4048541232
  C         0.9510645150       12.1967787511       24.3483907576
  C         2.6586800248       13.8802121622       23.4244265153
  C         1.6196803732       10.5959811278       23.1692917300
  C         2.3225342725       11.4766270674       21.1313240652
  C         1.0623503148       10.8709614951       24.3796786673
  C         0.5220396019       12.7590298542       25.4909240950
  H         2.8302609660       14.3551441423       22.4967845982
  H         2.4823972467       14.6386652578       24.1334936094
  C         3.9002105534       13.0845905797       23.7007313456
  S         2.1239630095        9.1534255697       22.3346245692
  C         2.6053848554       10.1515930227       21.0311274931
  H         2.4708694749       12.2726944652       20.4717969680
  C         0.6097283962       10.1611024767       25.4867707820
  H         0.5724065446       13.8358700996       25.4544628905
  C         0.1171487154       12.0868884268       26.6091391407
  H         4.2718473712       12.4290356036       22.9285787115
  H         3.7531778890       12.3491445226       24.4756716738
  C         4.9524999165       14.0374596236       24.2599180409
  C         3.2458006283        9.4565828311       19.8055904135
  C         0.0731095647       10.7343132328       26.6471157985
  H         0.5707278566        9.0983391016       25.4133095683
  C        -0.2634482920       12.4810319114       27.8185928983
  H         5.4582849635       13.3907809835       24.9273211392
  H         4.4920245706       14.8693596179       24.7736384491
  C         5.7864233367       14.7113305487       23.1410081622
  C         3.0707958141        8.0971241799       19.5032485395
  C         3.5682629252       10.2563017882       18.6123345990
  C        -0.4357063811       10.0105531145       27.9166213097
  C        -0.5579354095       11.3685395339       28.6453570638
  S        -0.7094402374       13.9344555785       28.5654380337
  H         6.2566379085       15.6202027934       23.4456570122
  H         5.0049821335       14.9124047934       22.3351180270
  C         6.8092802321       13.7947395722       22.5128275553
  N         2.7563766320        7.1117835238       20.4197242439
  C         3.2411520392        7.5599250325       18.2336773350
  C         3.8984259166        9.7042707174       17.3680066522
  H         3.6158444306       11.3275370411       18.8086940718
  C         0.6505465445        9.0431817036       28.4986306977
  C        -1.7722738387        9.2768731323       27.7647507137
  C        -0.9052094812       11.7577998759       29.9586166900
  C        -1.0199789282       13.1489643358       30.0647820488
  H         7.7962900285       14.2211533315       22.7400949807
  H         6.7378271197       12.8318649517       22.9611717052
  C         6.6931821799       13.8110669662       21.0198394566
  S         2.6031323658        5.6638821966       19.6833602697
  N         3.0155901357        6.1845112582       18.1815252754
  C         3.6415584629        8.2449655429       17.0725650656
  H         4.2405899382       10.3647515391       16.5750286165
  H         1.1341792052        8.4891679601       27.6666917780
  H         0.0758379365        8.2325789871       28.9965215722
  C         1.6817324377        9.6824997970       29.4316401833
  H        -1.6438794607        8.3103610666       27.2808434813
  H        -2.1811563445        9.1116839378       28.7539893387
  C        -2.9582227385       10.1371191069       27.1905589010
  H        -0.9483810251       11.0240994729       30.7387344810
  C        -1.3359059554       13.9192192445       31.3401851900
  H         6.6611693342       14.8737070569       20.8452506973
  H         5.6586483832       13.4662415187       20.8256793582
  C         7.6976266817       13.0150243902       20.2473683230
  C         3.7067393693        7.5835617009       15.8044968650
  H         1.8994665270       10.6834633893       29.0736895634
  H         1.1826139282        9.7560390517       30.4717343305
  C         2.9937379034        8.9136573731       29.6331395259
  H        -2.7313651946       10.6953597432       26.2891500619
  H        -3.2633676762       10.8815491547       27.9588259429
  C        -4.2167369111        9.3580984376       26.9395303460
  C        -1.5004037381       15.3151864434       31.4201604867
  C        -1.5584686552       13.1344383737       32.5943630634
  H         8.7031330081       13.3212863427       20.3509135126
  H         7.6516700447       11.9163008827       20.4239717333
  C         7.4609461998       13.1021227971       18.7370030742
  H         3.4087063304        6.5684909156       15.8413007750
  C         3.9901628289        8.0527945462       14.5208789148
  H         3.2843936700        8.4131621877       28.7358490846
  H         2.8583556071        8.1838988088       30.4364382060
  C         4.0854193153        9.9213897079       29.8975522918
  H        -4.0217904440        8.5563926670       26.2401826519
  H        -4.5536600757        8.9680026802       27.8710869990
  C        -5.1440600705       10.3186417586       26.2179456324
  N        -1.1951639493       16.1476729063       30.3804925547
  C        -1.8332433375       15.9487711676       32.5809373662
  C        -1.9260237071       13.8066450696       33.7602034130
  H        -1.6015527559       12.0873206800       32.6358827575
  H         8.2738289497       12.8407185607       18.1326429694
  H         6.6084028549       12.4126615422       18.4186535062
  H         7.3053231911       14.1317989998       18.4712013974
  S         4.3711318994        9.6899352580       14.0063953351
  C         4.0280503574        7.0999417488       13.3641006932
  H         4.0351859643       10.4126304905       28.8895753929
  H         3.7034896424       10.6492202571       30.6754716911
  C         5.4432285353        9.2744392545       30.1629500993
  H        -4.8679940875       10.3156602453       25.1966636197
  H        -5.1153201842       11.3488362716       26.5901004582
  C        -6.6548842970       10.0389700959       26.4410198525
  S        -1.2416900702       17.6479150448       30.9093259775
  N        -1.7202444708       17.3458746331       32.4463795620
  C        -2.0131933265       15.3020682099       33.8283640678
  H        -2.0891636270       13.2104437194       34.6223744859
  C         4.5100764507        9.0623470554       12.3976606170
  N         4.4931088424        7.7259503627       12.2666283488
  O         4.0483944216        5.8411376340       13.5148463824
  H         6.1084388657       10.1205841655       30.3218653627
  H         5.7852278215        8.8397903557       29.2493322244
  C         5.5884430899        8.4255166580       31.4341086912
  H        -6.8487123870        9.0098684423       26.7021909023
  H        -6.9111448086       10.5928689350       27.3652481861
  C        -7.4774360443       10.5919027241       25.3056938242
  C        -2.3525959031       16.0238692405       35.0261692888
  S         5.0653704315       10.1012988321       11.1184262022
  C         4.6951239498        7.0465628816       10.9843649010
  H         6.4126373929        8.7057353170       32.0745603936
  H         4.6953897466        8.4255969882       32.0753954121
  C         5.7189216507        6.9586785109       31.0388821916
  H        -7.1635740934       10.2399849189       24.3039125484
  H        -7.1982617440       11.6743648298       25.3840282776
  C        -9.0501874812       10.3720836806       25.3864627355
  H        -2.0015682349       17.0514327417       35.0166355836
  C        -2.8923396383       15.5364221123       36.1437635894
  H         5.3662663450        7.6621046994       10.3560307367
  H         5.2010156562        6.1182393370       11.2213325780
  C         3.2970977450        6.9366229481       10.3987933084
  H         6.7903516986        6.9070394343       30.7116425088
  H         5.1925378555        6.8056404272       30.0779197496
  C         5.3632473971        5.9238356411       32.1413441682
  H        -9.4773131979       10.8380067633       24.4485684498
  H        -9.2216969405        9.3454760483       25.3998371825
  C        -9.7286796432       11.0081913169       26.5858235106
  S        -3.5583135046       13.9972426190       36.5920693483
  C        -3.0047602510       16.6129385888       37.2301249682
  H         3.2700870810        7.1287025071        9.3314705031
  H         3.0255506648        5.8493305112       10.4270229999
  H         2.5448301968        7.4663505522       10.9972094898
  H         5.2169466046        4.9096529015       31.7013730129
  H         4.4394662409        6.2105046225       32.6482792623
  H         6.2171461431        5.8641516439       32.8358178034
  H       -10.7680858906       11.0437994522       26.6143750693
  H        -9.4901683532       12.0817367434       26.5284453804
  H        -9.2756340729       10.5775328679       27.5254685816
  C        -3.9477131020       14.7517165307       38.1919274519
  N        -3.5360795267       16.0023973454       38.3153366753
  O        -2.6214145957       17.7442617323       37.1387466912
  S        -4.5067945271       13.9343970545       39.5944911089
  C        -3.6853918646       16.8757438661       39.5522303358
  H        -3.9863136720       17.8902781888       39.2723554336
  H        -4.4727224735       16.5177388253       40.1892218203
  C        -2.3860620601       16.8172701012       40.3474920107
  H        -2.5484118497       17.4095894945       41.2950464325
  H        -2.1522212229       15.7617646331       40.5543744804
  H        -1.5588773671       17.2280221334       39.7725168367
  H         7.9731514800       11.4392322416        3.0561488768
  C         8.2678144943       10.4336033026        3.2816408761
  H         7.3821315605        9.8005765240        3.3218545247
  C         9.1577996170       10.2484105018        4.5842536536
  C         9.1242551693       10.0775966344        2.0943088930
  C         8.4502676386       10.4916786063        5.9360505848
  H         9.5518018514        9.2521628752        4.6619045580
  H         9.9001496437       10.9913154660        4.4535934415
  H         8.5612790986       10.0559297615        1.1896343482
  H         9.6204166690        9.1069925095        2.1860502234
  H         9.8244808164       10.8020477521        1.8489581475
  C         7.5906240319        9.3631425066        6.3864220769
  H         9.0560514614       10.6761931075        6.7386920076
  H         7.7601573429       11.3592076047        5.8185187558
  C         6.9376598805        9.6785280501        7.7555954182
  H         8.1593595925        8.3963305005        6.3479204473
  H         6.8385975124        9.1607933171        5.6076750066
  C         5.6826095636       10.4946009792        7.5815090672
  H         7.5828745699       10.0940822091        8.5332065910
  H         6.6657587597        8.7270015621        8.1919867193
  C         4.5040085611        9.7579185852        7.0020816629
  H         5.5367212180       10.7900263624        8.5647576447
  H         5.8313569791       11.3904386665        7.0325764902
  C         3.2022791906       10.5741207024        6.7636978985
  H         4.2367674585        8.9502494157        7.7218600315
  H         4.7831176711        9.3631358622        6.0247873467
  C         3.5255995713       11.9166488921        6.0075198925
  C         2.8032251425       11.3120234719        8.0109272351
  C         2.1223357613        9.8915056149        5.9884566010
  C         3.2117247519       13.0490638874        6.7802318163
  C         4.0047410129       12.3051267601        4.7742583946
  C         2.8159885988       12.6314037689        8.0268444841
  C         2.4521962010       10.6390008502        9.1576246804
  H         2.5528819728        9.7827090772        4.9778675046
  H         1.9686347567        8.9311490591        6.4459287197
  C         0.7857847042       10.6913866248        5.9389713730
  S         3.6003367813       14.5386265285        6.1175358838
  C         4.0411891634       13.6975868169        4.7111978029
  H         4.2914640742       11.5589919818        3.9978194634
  C         2.3679998395       13.2760304190        9.1637700447
  H         2.3936566324        9.5864031236        9.1584906603
  C         2.0154544060       11.2104291006       10.2669252015
  H         1.1244423293       11.6207029942        5.5104392725
  H         0.3335197290       10.8710541446        6.8310779847
  C        -0.1598978530        9.9844209090        4.9472476380
  C         4.4926427116       14.4483692081        3.5008909874
  C         1.9997797658       12.5737655822       10.3529567942
  H         2.3957357746       14.3466212428        9.0965208242
  C         1.5819115319       10.8803443740       11.5652333425
  H        -1.2008753625       10.1580055376        5.1439547123
  H        -0.1874233065        8.9245080989        5.1036653863
  C         0.0890684823       10.2138011229        3.4256644576
  C         4.4653216588       15.8511750512        3.2331272635
  C         4.9071108503       13.6194051283        2.3007162763
  C         1.6069804253       13.2814138603       11.5799033727
  C         1.2785069740       11.9690008062       12.3793750636
  S         1.2972860963        9.3711373101       12.4209838554
  H         0.9869310967        9.6293134834        3.3007458714
  H         0.2433497774       11.2336043892        3.1934169554
  C        -0.9943252124        9.5985931460        2.4653595566
  N         4.0669362829       16.7606575132        4.1428525649
  C         4.7504065117       16.3814657855        1.9874397321
  C         5.3415662550       14.1695961855        1.0779173957
  H         5.0402520740       12.5775460117        2.4179048129
  C         0.4919024406       14.2851671120       11.4304869018
  C         2.9438414239       13.8271114134       12.1535622938
  C         0.8640245814       11.6120031408       13.6523240931
  C         0.8508215624       10.2934501345       13.7958727648
  H        -1.9034667969        9.3437208100        2.9702448928
  H        -1.4272106830       10.3460658478        1.8984413899
  C        -0.4235943019        8.5175689037        1.5423344489
  S         3.9918038497       18.2734198514        3.4165693799
  N         4.6642661934       17.7770406357        1.9863355192
  C         5.1633591979       15.6233951694        0.8960964090
  H         5.7262387706       13.5735847571        0.2616374671
  H         0.6889068338       15.0546271868       10.7210415789
  H         0.4215663069       14.8388141784       12.3878906807
  C        -0.8791194627       13.6499744884       11.2803764807
  H         3.5814016024       13.0192556775       11.9824423328
  H         3.3223092336       14.6765331979       11.6362324318
  C         2.9458402449       14.0663039248       13.6381528737
  H         0.6424454894       12.3160477649       14.3911862006
  C         0.6367838019        9.6671060889       15.1346741737
  H        -1.2367939903        7.8955936813        1.2311923817
  H         0.3431392388        7.8756905661        1.9214615979
  C         0.3082320276        9.1918860156        0.3674866944
  C         5.3296356072       16.2685561438       -0.3831904285
  H        -0.6976880420       12.7296286456       10.7207003872
  H        -1.2137496026       13.2303321609       12.1802897087
  C        -2.0081846178       14.5343442149       10.7401243029
  H         3.0376574481       13.1115607404       14.1385051087
  H         1.9776452037       14.4323769828       13.9462692298
  C         4.1629072800       14.8270587246       14.0886737492
  C         0.2431821824        8.2849855562       15.2659761492
  C         0.5144754584       10.4952120627       16.3619113533
  H         0.9615753955        9.9975079940        0.7248918162
  H         1.1408684336        8.5115354008        0.0516609522
  C        -0.6728205916        9.7281416042       -0.7858321613
  H         4.8984314989       17.2479021073       -0.3280339826
  C         5.7237896918       15.9070529909       -1.6589256504
  H        -1.6357111085       15.0463402794        9.8733564193
  H        -2.3863333704       15.4072490901       11.3024179876
  C        -3.0923006300       13.6745699448       10.3139128337
  H         4.4927879363       15.6534366511       13.4618172847
  H         3.9292457956       15.2012626301       15.0915130340
  C         5.2921111551       13.8413197534       14.2707694110
  N         0.2328241781        7.3247040580       14.3161878358
  C        -0.0321120810        7.6986132375       16.5060320605
  C         0.2202525619        9.9175874912       17.6327902968
  H         0.6543440746       11.5214641267       16.3156949172
  H        -1.6649610920        9.9763600039       -0.4009371840
  H        -0.8575360012        8.7399898646       -1.3210589996
  H        -0.3475014492       10.5256185113       -1.5024233225
  S         6.0899711716       14.2881436523       -2.1733351371
  C         5.6948819269       16.9402807208       -2.7058765179
  H        -2.6511282233       12.8866914784        9.6743744528
  H        -3.4696801082       13.2284489805       11.2543911792
  C        -4.3748782192       14.2726807380        9.6321674387
  H         5.2581171175       12.9932646119       13.5403760745
  H         5.3949302150       13.4401979285       15.2627749419
  C         6.6661443157       14.5935249400       14.1118415181
  S         0.0077390755        5.8634169538       14.9468934627
  N        -0.2280056810        6.3175111029       16.4862423518
  C        -0.0056552774        8.4325976615       17.7019099147
  H         0.2323313353       10.5116268491       18.5727802644
  C         6.1974431242       15.1143854292       -3.7853803058
  N         6.0735235311       16.4167669387       -3.8251616043
  O         5.4443535184       18.1539430855       -2.4784993951
  H        -4.9790403720       14.8002950668       10.2967804471
  H        -4.0399608774       14.9488602844        8.8589407671
  C        -5.2487336553       13.1791892539        8.9716526833
  H         7.5419307868       13.9439207651       14.0377118661
  H         6.7112435156       15.1786907221       13.1462553776
  C         6.9084918349       15.4573735484       15.3400785647
  C        -0.3771462220        7.7852781645       18.9288527632
  S         6.6655823321       14.3853733703       -5.3322283153
  C         6.1325664343       17.1882600390       -5.1051159026
  H        -4.8283826621       12.8235939502        7.9995500534
  H        -5.2342640735       12.2777509034        9.5701537468
  C        -6.6278108634       13.8409782395        8.5590987342
  H         7.0726820469       14.8267563235       16.2294484500
  H         6.0046397549       16.0615054959       15.6021575954
  C         7.9401984660       16.4991447426       15.0775132542
  H        -0.1904285524        6.6820832764       18.9316452124
  C        -0.9364273750        8.2235868073       20.0951609795
  H         6.9561109601       16.9347809708       -5.6848785971
  H         6.4316824873       18.2110320279       -4.9120814236
  C         4.7289798602       17.2533053452       -5.8574600214
  H        -7.0856895126       13.4010488498        7.6482303666
  H        -6.4570014901       14.8424702440        8.2684540695
  C        -7.6246409426       13.8855674375        9.7206821944
  H         8.3938318007       16.7452131018       16.0356583484
  H         8.6675883849       16.0770324917       14.4543866323
  C         7.3752569984       17.7285561161       14.4687936188
  S        -1.3944401765        9.7485725851       20.5423335168
  C        -1.2219076195        7.1722410459       21.1368186059
  H         4.6546719451       18.1530855929       -6.3813292089
  H         4.0927932599       17.2972292325       -5.0096750623
  H         4.3806463900       16.3904937420       -6.4355974261
  H        -8.5809228481       14.2165904673        9.3530959785
  H        -7.7257187656       12.9358767258       10.1506842296
  H        -7.3995449658       14.6129251096       10.4640523100
  H         8.1770483963       18.1676487695       13.9407394197
  H         6.4141014090       17.7888264018       13.9461066252
  H         7.1287207830       18.3126891699       15.3155381704
  C        -2.0483722195        9.0278330086       22.0586295340
  N        -1.9390241763        7.7024060469       22.1200149123
  O        -0.8409531143        6.0391621228       21.1044428206
  S        -2.8551119537        9.8624631965       23.4173709306
  C        -2.2524382565        7.0083839540       23.3682422322
  H        -2.4033716223        5.9373886143       23.2178784723
  H        -3.2705816267        7.2386223854       23.7026989273
  C        -0.9473816456        7.2065657234       24.2460312698
  H        -0.1680240586        7.7358072087       23.7248952889
  H        -0.6140994395        6.2203288545       24.5855667294
  H        -1.0961418927        7.7877216172       25.1318371771
