352
i =
  H        -3.3388797135       13.4236284781       16.4658235801
  C        -2.2184770257       13.2966999969       16.3653378161
  H        -2.0107602365       12.2844536767       16.4052896066
  C        -1.3871470090       14.0641474397       17.3758146935
  C        -1.9600283695       13.8421269237       14.8966404002
  C        -2.0575505378       14.0112158300       18.7666828047
  H        -0.3799359579       13.5791432291       17.5170452398
  H        -1.2823408956       15.0561394382       16.9543401299
  H        -0.9641217165       13.6713395184       14.5518386982
  H        -2.7171014932       13.5397986368       14.0792175651
  H        -2.0861836636       14.9205897945       14.8735329898
  C        -1.9154181957       12.6128406936       19.4268864606
  H        -3.0931597124       14.3273867098       18.6732037868
  H        -1.6288663867       14.7775433374       19.4242804886
  C        -2.6249480661       12.5014259427       20.7639933938
  H        -2.3591980179       11.7184900852       18.9430206883
  H        -0.8588576448       12.3829793725       19.6037099250
  C        -1.6746357670       12.2924313707       21.9851483841
  H        -3.1949097988       11.5546057777       20.5936105448
  H        -3.2408589457       13.3850773963       20.9106906024
  C        -0.5376346929       13.3472518632       22.2547860591
  H        -2.2587319942       12.2771730276       22.8965425319
  H        -1.2962661072       11.2593889285       21.8496852641
  C         0.8021013442       12.8086349429       22.9715525189
  H        -0.2156246260       13.8757969954       21.3697918884
  H        -0.9497518573       14.0552778496       22.9393334802
  C         1.2751242664       11.5107790694       22.2755357424
  C         0.5251871344       12.1333598557       24.2211223482
  C         2.0948976873       13.7746207175       23.1926384986
  C         1.0917940446       10.4329320172       23.1343322204
  C         1.8689097692       11.1272714031       21.0452730987
  C         0.5807986144       10.7928703399       24.3937224413
  C        -0.0043896271       12.7084734634       25.3645700322
  H         2.4669112198       14.0178853731       22.1791688284
  H         1.8702212267       14.7244338843       23.5317568025
  C         3.3320993001       13.2077719147       23.9044989085
  S         1.6977353232        8.9479235274       22.4241340158
  C         2.0748752213        9.8196774095       20.9606621967
  H         2.0452147860       11.8849400101       20.3648818478
  C         0.2411265336       10.1901587537       25.5553406269
  H        -0.1627569362       13.7891444222       25.2996909672
  C        -0.3514748060       12.0985057195       26.5257562227
  H         3.7724913522       12.3770603118       23.3721032823
  H         3.0300752233       12.6968962533       24.8722739127
  C         4.5644399453       14.0671226434       24.1080015041
  C         2.6109881634        9.0825165951       19.7639741572
  C        -0.1432515622       10.8186113536       26.7163002347
  H         0.3652550741        9.1558192117       25.6670774330
  C        -0.8716460818       12.5133201926       27.7295730444
  H         5.3878771169       13.6082259179       24.6561843431
  H         4.4153862950       14.9433396754       24.7208234174
  C         5.2617712161       14.5799584430       22.7984487202
  C         2.6134353601        7.6824273123       19.5606564433
  C         3.1231609521        9.9678185902       18.6743873730
  C        -0.4857834169       10.1781725354       28.0118467337
  C        -0.8855717662       11.4679647618       28.6162860572
  S        -1.2664528755       14.0139067481       28.3958748379
  H         5.9140258211       15.3342488439       23.1508281962
  H         4.5532415405       15.0732166057       22.1179670097
  C         6.0300329298       13.4919849540       22.2066094781
  N         2.2912426887        6.6486111680       20.4190473795
  C         2.8001538202        7.1330057765       18.3072038514
  C         3.2984267516        9.4026114012       17.4018470560
  H         3.2434656655       11.0086947102       18.7732725924
  C         0.6952967588        9.3934970760       28.6989794403
  C        -1.7879706024        9.3414981523       27.7720458014
  C        -1.3400650475       11.8996508597       29.8768482572
  C        -1.4558577734       13.2551007155       29.9245461309
  H         7.0260670220       13.4656574187       22.6590394890
  H         5.6051169445       12.5149965118       22.3748753670
  C         6.2208113290       13.7296295769       20.7220796735
  S         2.3378449084        5.1971013873       19.7431687400
  N         2.7859434737        5.6962229136       18.2040074401
  C         2.9565568536        7.9541679267       17.1368738654
  H         3.6705150684       10.1612933302       16.7291512660
  H         0.8686049884        8.4912712768       28.1357668744
  H         0.2584841768        9.0200944349       29.6665601533
  C         1.9754249008       10.2042742530       28.8465309583
  H        -1.5309028163        8.4733899479       27.0410071843
  H        -2.0781870120        8.9095366990       28.7614671753
  C        -3.0219519461       10.1547912590       27.2340947661
  H        -1.4891381885       11.2403048278       30.6673411034
  C        -1.6295167440       14.1555048276       31.1355507984
  H         5.8160796667       14.6585218921       20.3976013331
  H         5.6257161683       13.0050774252       20.1216855099
  C         7.7063571433       13.7657758417       20.3744520940
  C         3.2512177968        7.2661912997       15.9061225010
  H         2.3075672856       10.4330081723       27.8420184631
  H         1.7876373738       11.2711871545       29.1649770593
  C         3.0672847488        9.5401250000       29.7826898273
  H        -2.8866786201       10.4835035272       26.1791749806
  H        -3.1901777361       10.9486830359       27.9002655046
  C        -4.1862880559        9.1644236908       27.3219716811
  C        -1.7696386044       15.5943196887       31.1472234009
  C        -1.8568290493       13.5243584076       32.4706633681
  H         8.1529279902       14.7060342725       20.7550372421
  H         8.2962363935       12.9022172442       20.7844790675
  C         7.8797376862       13.7621274007       18.8616904256
  H         3.3327684271        6.2238798391       16.0155961110
  C         3.6661352224        7.6827190974       14.6449984129
  H         3.1604954806        8.5229209972       29.6495519944
  H         2.7226507048        9.6660504184       30.8133385960
  C         4.4693021880       10.1598870459       29.6647072515
  H        -4.1039384529        8.4966332755       26.4442767426
  H        -4.0047122502        8.4831714629       28.1493002208
  C        -5.5107952148        9.8517381690       27.3756855615
  N        -1.4733784028       16.4221746830       30.0748716379
  C        -2.0395367679       16.3469738229       32.2824273576
  C        -2.0537194104       14.2251301879       33.6124357724
  H        -1.9163052321       12.4904911882       32.5598143078
  H         6.9437397528       13.4677532835       18.4112840474
  H         8.2488789112       14.7985622135       18.5763450220
  H         8.7390835353       13.0736433775       18.6804378176
  S         3.9531061878        9.2679056810       14.1021299574
  C         4.0595413391        6.5828446101       13.6016619412
  H         4.5914218407       10.5347959996       28.6614152323
  H         4.4805256429       10.9837465996       30.4323338411
  C         5.5315226443        9.1059244732       29.9661927833
  H        -5.3662228554       10.9041964070       27.4809060051
  H        -6.1278258828        9.5346872221       28.2693835459
  C        -6.3061790304        9.5263011633       26.0836676955
  S        -1.5332933240       18.0020691667       30.4644555224
  N        -2.0019904059       17.7562733605       31.9571279648
  C        -2.1726670263       15.7441678961       33.5468888016
  H        -2.0507011561       13.7442797114       34.5543419153
  C         4.1819461755        8.5083533462       12.4656788344
  N         4.3437426612        7.1683240635       12.4571923007
  O         4.0211475353        5.3796644497       13.7998868630
  H         6.5283029093        9.5539354860       29.8139679374
  H         5.4471953556        8.3654367006       29.1694258661
  C         5.6263497293        8.6305249080       31.3923356001
  H        -5.7553132447        9.8808549910       25.1958940709
  H        -6.4733005769        8.5006772724       26.0492892065
  C        -7.5768025254       10.3284368948       26.1483637705
  C        -2.3790690254       16.6498314759       34.6467180770
  S         4.4634574862        9.4148515388       10.9168122153
  C         4.3949120995        6.3935163022       11.2196698204
  H         6.2846917097        9.3532842418       31.9137355789
  H         4.6324823057        8.7484147826       31.8658301835
  C         6.1679341638        7.1725982691       31.4791200998
  H        -7.3011025543       11.3747231674       25.9745562447
  H        -7.9238628063       10.2469528391       27.1698943124
  C        -8.6086175661        9.7755210878       25.1930545059
  H        -2.2247310529       17.6940279392       34.4404844398
  C        -2.7319714993       16.4535905458       35.9216130603
  H         5.1434867747        6.8383279787       10.6358497193
  H         4.7836991252        5.3530653562       11.3913864144
  C         3.0212794284        6.3423806095       10.5548487242
  H         5.4554693567        6.3705989813       31.2316512546
  H         6.3474586261        6.9372029225       32.5434846113
  C         7.2840622034        6.8717168935       30.5016422880
  H        -8.6857208605       10.2994156453       24.2461549218
  H        -8.3140994802        8.7698834764       24.8233541120
  C        -9.8955509758        9.6904586106       25.9603507531
  S        -3.0299817601       14.8941252459       36.6112347311
  C        -3.0500413625       17.6633589148       36.7255154622
  H         3.1705017640        5.8114361324        9.6243196077
  H         2.3287418389        5.7590564308       11.1648096861
  H         2.6086697082        7.3238714641       10.2898361263
  H         8.1285939618        7.6542082531       30.6492743118
  H         7.0315544331        6.9237588606       29.4595334635
  H         7.6475600466        5.9074622883       30.7272602537
  H       -10.1579865926       10.6836804947       26.3126110328
  H        -9.7825414107        8.9554425729       26.7544219770
  H       -10.7603075768        9.4092843106       25.2769413746
  C        -3.4328006748       15.8919827533       38.0528099296
  N        -3.4068609860       17.2346388080       37.9368708664
  O        -2.8972938670       18.8443885522       36.3396363729
  S        -3.8989743486       15.2488149264       39.5713629976
  C        -3.6029747164       18.1529371769       39.0928295971
  H        -3.9695191200       18.9685656171       38.5971011283
  H        -4.3263913643       17.8394601592       39.8730463774
  C        -2.3179503449       18.2071031875       39.8838589834
  H        -2.2293959306       19.1206626412       40.4331153654
  H        -2.2229734798       17.3493370699       40.5369438789
  H        -1.3964950300       18.2397524390       39.2940749683
  H         7.1563015538       10.9195873845        3.0949678746
  C         7.9870712804       10.1981278087        3.2951639397
  H         7.4816919231        9.2510346801        3.1581126097
  C         8.5530236304       10.2327242884        4.7868036003
  C         9.1615505124       10.4215054957        2.3176924880
  C         7.4956916761       10.4085869187        5.8309409958
  H         8.9018944178        9.2527592739        5.0675718940
  H         9.3824410008       10.9342924436        4.9033922774
  H         9.7983105780        9.5432593218        2.3519456008
  H         9.8938843892       11.2758130077        2.5855359491
  H         8.7324119068       10.5761666229        1.3292209224
  C         7.0079393114        9.0891670985        6.3827096854
  H         7.9792762078       11.0195489433        6.5859611563
  H         6.6665788715       10.9461948634        5.4168659503
  C         6.1567843431        9.1915448739        7.6901111261
  H         7.8689382705        8.3137130763        6.5012982535
  H         6.4436076084        8.4875630214        5.7592781983
  C         4.9930451660       10.1825956625        7.6759476530
  H         6.8413482448        9.4591742915        8.5160996695
  H         5.9241008010        8.0949428468        7.9236957130
  C         3.6916995563        9.4522342145        7.1505143532
  H         4.9860090359       10.6237644753        8.6387495405
  H         5.2588703883       10.9210475870        6.9497866626
  C         2.5427047111       10.4673357265        6.7914711269
  H         3.3023713580        8.7048829774        7.8363651514
  H         3.9856959981        8.8882567985        6.2684317160
  C         2.9678264101       11.8194649388        6.2177095381
  C         2.2032966015       11.0585280334        8.1111143809
  C         1.3276833083        9.7377936356        6.2365555066
  C         2.8214813441       12.8614325700        7.1016554316
  C         3.4660211658       12.2527436225        4.9697342693
  C         2.3252675552       12.4105682491        8.3103470104
  C         1.6560063733       10.4508335233        9.2351944463
  H         1.6270077684        9.3464606836        5.2310814895
  H         0.9150563196        8.9002899779        6.7913446337
  C         0.0199828739       10.6585975226        6.1588043262
  S         3.4299554097       14.3557606737        6.5353031218
  C         3.9067134003       13.5758888123        5.0872514416
  H         3.5395909943       11.5821429819        4.1081167488
  C         2.0198820581       12.9603338429        9.5010678587
  H         1.4912862018        9.4106848280        9.1077127785
  C         1.4483923530       11.0360045579       10.4445619271
  H         0.2306922303       11.6167064878        5.7518376615
  H        -0.4594838228       10.7991385627        7.1463411782
  C        -1.0143336676       10.0848856940        5.1935687945
  C         4.6355266295       14.2691501522        3.9812128629
  C         1.6143226009       12.3074183696       10.6648142759
  H         2.1408040768       13.9893303385        9.5475570631
  C         1.2131930998       10.5410730438       11.6695590582
  H        -1.8565966691       10.7956150015        5.2434734892
  H        -1.3969655636        9.0908396232        5.5132261174
  C        -0.5717902911        9.9391996456        3.7788644606
  C         4.5845135932       15.6267150883        3.6582531883
  C         5.2583382219       13.4280845772        2.8538482681
  C         1.5005306557       12.9391865776       11.9786995569
  C         1.2143727131       11.5612849768       12.5884399701
  S         0.9394011749        8.9488408440       12.3183013350
  H         0.0892840903        9.0529162440        3.8227755672
  H         0.0168749262       10.7689162989        3.4602662925
  C        -1.6261575781        9.6660919738        2.7927712373
  N         4.1301453024       16.6142341325        4.5367864164
  C         5.0140905324       16.1580633769        2.4744539156
  C         5.5796272237       13.9451689084        1.5638941254
  H         5.3901748866       12.4049569130        2.9931968264
  C         0.3154455258       13.9479587989       11.9895779460
  C         2.8495998539       13.5148598916       12.5211774361
  C         0.7499644947       11.0651179101       13.8159129111
  C         0.4939686508        9.7492054704       13.8259024631
  H        -2.2930845428        8.9058721989        3.2776522380
  H        -2.2298626753       10.6127888746        2.7569150187
  C        -1.1193526705        9.2103496968        1.3930372175
  S         4.2993298219       18.0917854207        3.7374166788
  N         4.7298529862       17.5267952609        2.3186559107
  C         5.3848328216       15.3947681955        1.3378360913
  H         6.0371814160       13.2561973199        0.8409906009
  H         0.5809926529       14.7740593756       11.3388349423
  H         0.2223239081       14.2355342506       12.9812624428
  C        -0.9949005119       13.2179137702       11.3272751675
  H         3.6515114849       12.7943299473       12.4412466762
  H         3.1620524668       14.3607917138       11.9265234754
  C         2.8574677876       13.9547947187       14.0153728810
  H         0.5413292451       11.7254887871       14.6744757530
  C         0.1797750194        8.9581199269       15.1156991217
  H        -2.0031616212        8.7204492828        0.9825235353
  H        -0.2217971703        8.5859777451        1.4840088326
  C        -0.6744172087       10.2809386714        0.4813517151
  C         5.5494133593       16.0015417906        0.0433458227
  H        -0.6681253759       12.8772463811       10.3364223145
  H        -1.2282026342       12.3958215205       11.9871263402
  C        -2.2351444405       14.1061027283       11.0217214738
  H         2.4353779463       13.2454282734       14.6965221565
  H         2.1702724671       14.7707210643       14.2019921895
  C         4.2235795604       14.4165362159       14.5778898723
  C         0.2827591973        7.5747069678       15.2516613222
  C        -0.1361497098        9.7367545655       16.3480595838
  H        -1.5590762605       10.9112342537        0.2040454166
  H        -0.0349095135       10.9924542566        1.0020383387
  C        -0.0383560899        9.6684257132       -0.8042201406
  H         5.3494146846       17.0312036144        0.0789186595
  C         5.8351327703       15.5604949306       -1.2848962668
  H        -1.9614968339       14.8530008825       10.2992477907
  H        -2.4439065602       14.6477386957       11.9649881787
  C        -3.3779105231       13.2096129629       10.5268553485
  H         4.5769355021       15.1917042353       13.9690128194
  H         4.2003642592       15.0061556661       15.4897674398
  C         5.3104175135       13.2396678627       14.6755281968
  N         0.5745971389        6.7161249773       14.1922428524
  C         0.0613668341        6.8924811716       16.4216289469
  C        -0.3158954864        9.0775906871       17.5499465720
  H        -0.2782406003       10.8495061392       16.2941362772
  H         0.0338939355       10.5317268433       -1.4819792250
  H        -0.7679390271        8.9123191193       -1.1968333985
  H         1.0202831651        9.3229139313       -0.6852888028
  S         6.2647036355       13.9922118610       -1.7654782219
  C         5.9372504930       16.5607962907       -2.4198853756
  H        -2.9057452171       12.5757213204        9.7842902540
  H        -3.7964089552       12.5926525203       11.3544953103
  C        -4.5712874974       13.8963525537        9.9450016692
  H         4.7962139976       12.3179706502       14.2356181358
  H         5.5387091621       12.9707670391       15.7636906233
  C         6.5798873948       13.6739482572       14.0721770847
  S         0.5204448812        5.1703434616       14.7769808680
  N         0.1599563461        5.4750697228       16.3076962301
  C        -0.3441376900        7.6070150988       17.6003857770
  H        -0.3928638637        9.6763879243       18.3977993357
  C         6.1058499723       14.5866352259       -3.4471671870
  N         6.1562516005       15.9325169617       -3.5236727281
  O         5.7534337832       17.7706090128       -2.2045853743
  H        -5.1786701338       14.3142661176       10.7498499002
  H        -4.2474446327       14.6780763535        9.2637533728
  C        -5.4269792797       12.9395344870        9.1134958306
  H         7.1761519870       12.7250263313       13.8748624360
  H         6.4368539406       14.2254134726       13.1265519479
  C         7.2326155062       14.6028326578       15.0936821185
  C        -0.6410766754        6.9052052924       18.7915127408
  S         6.4607281600       13.7376999658       -4.9167181052
  C         6.2451487888       16.7464937327       -4.6830698838
  H        -4.7484437620       12.5313985623        8.3549251779
  H        -5.5968690965       12.0212917207        9.7241585511
  C        -6.8445449158       13.4788905289        8.6393099582
  H         7.9084951387       13.9694461833       15.6698136799
  H         6.5049436702       14.8994607501       15.8556960636
  C         8.0163153471       15.8503860008       14.6518115370
  H        -0.6758878309        5.8657449412       18.6329086842
  C        -1.0337383991        7.3446522269       20.0186115544
  H         7.0254372316       16.3439950144       -5.4010353668
  H         6.6651309633       17.7475595983       -4.3659672215
  C         4.8707054428       16.8407445741       -5.3677666149
  H        -7.3111679162       12.6244953615        8.1160652464
  H        -6.7943207928       14.3754081754        8.0374571052
  C        -7.7084768717       13.8025866671        9.8237735543
  H         8.5679373383       16.2083630419       15.5240747833
  H         8.9113925482       15.6281954881       13.9833016383
  C         7.0071642596       16.7827589864       13.9633956194
  S        -1.6088957948        8.8972326082       20.5347438449
  C        -1.1360280319        6.3525935489       21.1127437972
  H         4.9153501177       16.5757027597       -6.4129468138
  H         4.5254184252       17.8842574742       -5.2333119471
  H         4.1616343434       16.2092289460       -4.8993814712
  H        -8.7392898172       13.8041513802        9.5928082197
  H        -7.4953705370       12.9331902667       10.5573434096
  H        -7.5272857176       14.7314691083       10.3564891464
  H         6.0598994626       16.7982839342       14.4884324876
  H         7.3619065762       17.7952791439       14.0111261500
  H         6.7730691224       16.6192378974       12.8903086161
  C        -2.0683444674        8.1253371817       22.0500995325
  N        -1.7081975160        6.8440583764       22.1891285473
  O        -0.7853348404        5.1704660826       21.0341317878
  S        -2.9330277100        8.9297608944       23.2798426908
  C        -1.8805432415        6.0621867405       23.3729862179
  H        -1.6950082208        4.9617883592       23.2238753473
  H        -2.8902944056        6.1275915498       23.7444946318
  C        -0.8091162927        6.6188369494       24.3905891077
  H        -1.0616710790        7.6966330014       24.5783654188
  H         0.1951633363        6.5496504233       24.0492149345
  H        -0.9398850550        6.2623835056       25.4045586603
