352
i =
  H        -3.2862387378       15.0632313108       15.8487623116
  C        -3.2620478103       13.9665508044       15.9641874180
  H        -4.2511742996       13.5657323121       16.1964614072
  C        -2.2298248299       13.7566498530       17.1257466557
  C        -2.9857423306       13.2913421504       14.6173867251
  C        -2.8708605121       13.7525927107       18.5215193091
  H        -1.7833356231       12.7664848870       17.0431119272
  H        -1.5406892745       14.5830537941       17.0390465137
  H        -3.5918766407       13.8576510118       13.8518276645
  H        -2.0265076855       13.1751115864       14.2027455524
  H        -3.4207243325       12.3112428950       14.6264326164
  C        -1.8529934664       13.3130179067       19.6520291210
  H        -3.5835717687       12.9690115657       18.5363812327
  H        -3.5386595425       14.5911343973       18.7129492203
  C        -2.2969360967       13.7428083533       21.0529018258
  H        -1.6924499140       12.2866831094       19.4344716035
  H        -0.9286094069       13.7473953688       19.3943175422
  C        -1.2650901806       13.2356609009       22.0796766663
  H        -3.2425085797       13.2002677840       21.2305127900
  H        -2.3680722018       14.7890674023       21.1622617044
  C         0.0367397970       14.0289653921       22.2851733872
  H        -1.7895707405       13.1547098551       23.0176594877
  H        -1.0267572721       12.2152924430       21.7603537688
  C         1.1896715006       13.3018586811       23.0397963811
  H         0.4228834421       14.1800082239       21.2676446421
  H        -0.0680871544       15.0229832124       22.7548169580
  C         1.5225543009       11.9019389270       22.3661038868
  C         0.7509400985       12.5918875080       24.3231124633
  C         2.4479005200       14.1474551130       23.1316373708
  C         1.2803938227       10.8631135662       23.1711270915
  C         1.8943712090       11.4939850425       21.0743398684
  C         0.8698344612       11.2475418231       24.4897238425
  C         0.2201050831       13.1877383481       25.4295194457
  H         2.6514077897       14.5168955040       22.1609551890
  H         2.2571913338       15.0643165336       23.7354522676
  C         3.7548768616       13.4684771173       23.5259597007
  S         1.5384898964        9.2695315189       22.3941550695
  C         1.9823147454       10.1168767657       20.9551869631
  H         2.0909434313       12.2942851020       20.3075199963
  C         0.4396900634       10.6550008648       25.6074716014
  H         0.0929670180       14.2424739171       25.3917665920
  C        -0.1035337788       12.6018828295       26.6181770921
  H         3.9648652471       12.5950092806       22.8538388684
  H         3.6128964401       13.0822580354       24.4868893736
  C         4.9319402039       14.3412407364       23.7451483077
  C         2.5130201603        9.3742271366       19.8067717006
  C        -0.0824577678       11.2421993723       26.7837342548
  H         0.5004685368        9.5275770459       25.5983735807
  C        -0.5499217510       13.0069483422       27.8542692282
  H         5.7561550544       13.7944292889       24.1642231702
  H         4.5147372301       15.0790334646       24.4465423235
  C         5.5097679760       14.9658232478       22.4702927064
  C         2.4100832278        7.9476838361       19.5354417562
  C         2.8157992287       10.1667437842       18.5870548288
  C        -0.5303926918       10.5778655601       28.0580459816
  C        -0.7990242394       11.9378522874       28.6955275139
  S        -0.8402515706       14.5147195140       28.5173682549
  H         6.1904884001       15.6950344803       22.8471595925
  H         4.7060287872       15.4655543153       21.8563705130
  C         6.2890892754       14.0595907759       21.5003786734
  N         2.0284597276        6.9281894393       20.4428289646
  C         2.6742357653        7.4092495577       18.3168390294
  C         3.0142194529        9.5956507923       17.3643943356
  H         2.8397642847       11.2362894483       18.4990533218
  C         0.6692627173        9.8620089283       28.7932482980
  C        -1.8242119845        9.7344600969       27.9448267595
  C        -1.2573670202       12.3657030256       29.9806087666
  C        -1.2545219197       13.7805315046       30.0652139809
  H         7.1580020835       14.5371347554       21.0919841805
  H         6.7004257235       13.2377753121       22.0414245437
  C         5.3814929494       13.5755284785       20.3336759537
  S         1.9232174536        5.5169573318       19.6436141956
  N         2.5175774171        6.0664170777       18.1926106740
  C         3.0351849934        8.1602055633       17.1962482114
  H         3.1030495151       10.3098822430       16.5165928212
  H         1.2768531089        9.3598576721       28.0254103778
  H         0.4360012731        9.0430179703       29.4486755309
  C         1.7404323727       10.7291720833       29.4081415299
  H        -1.7274974537        8.9998622862       27.1732807292
  H        -1.8654066425        9.0742647960       28.8006644559
  C        -3.0702012200       10.4952159641       27.5173045422
  H        -1.3922022048       11.6934434843       30.8068109774
  C        -1.6354353684       14.4944464285       31.3623694654
  H         4.4071156067       13.9452413323       20.3545221688
  H         5.2052930338       12.5860796145       20.4574239551
  C         6.0136562559       13.8995706410       18.9147840059
  C         3.1334533653        7.6205475317       15.8654113732
  H         2.1609884165       11.3321730916       28.6300773329
  H         1.3590978711       11.5409849666       30.0356139860
  C         2.9134691412        9.8859819324       29.9150774037
  H        -3.0607075798       11.0927351108       26.6546931795
  H        -3.3762651015       11.2521214790       28.2055888608
  C        -4.2137232511        9.4794378979       27.3645420529
  C        -1.5925313749       15.8984896964       31.5232519199
  C        -1.7650989799       13.7005054798       32.6336009436
  H         5.5267813292       13.3683290365       18.1284784841
  H         5.9737510833       14.8770787559       18.5758633135
  C         7.5043929054       13.5387198479       18.7380353827
  H         3.0945299451        6.5465499086       15.9241533648
  C         3.3205611603        8.0643244646       14.5777137673
  H         3.2493051020        9.1776365806       29.2515048975
  H         2.4454684725        9.3590828855       30.7334654391
  C         4.1980898036       10.6439270152       30.4223640026
  H        -4.0623204604        8.8257842224       26.4831148059
  H        -4.2075013709        8.8478671120       28.2504508809
  C        -5.5478167408       10.2151155483       27.3463643091
  N        -1.2526045649       16.9316134509       30.5553268748
  C        -1.9077148342       16.5138465571       32.7408690034
  C        -2.1149633849       14.3091696700       33.8133059686
  H        -1.6986122056       12.6357393743       32.6305881829
  H         7.8152334367       13.3685735516       17.7799528380
  H         8.2695483543       14.2122854765       19.1657397453
  H         7.5777786575       12.5655250560       19.2803968454
  S         3.4921129431        9.6846511400       13.9850963120
  C         3.3789697791        7.0422497203       13.5048155146
  H         4.1159615747       11.5700548754       29.8109515912
  H         4.1050635797       10.8836978631       31.4765603413
  C         5.3634962645        9.6508335167       30.2040331065
  H        -5.6747380796       10.9634345707       28.1521418779
  H        -6.3807431512        9.4651903996       27.4787049199
  C        -5.7992284912       10.9312347523       26.0267267097
  S        -1.5826329311       18.4174721618       31.1240733067
  N        -2.0530484481       17.9134270220       32.6489171185
  C        -2.2042341234       15.8224650696       33.9050558296
  H        -2.2829590816       13.7413941733       34.6818203328
  C         3.9871261128        8.9301992910       12.4642267834
  N         3.9115128302        7.5783261993       12.3714105878
  O         3.1690543851        5.8427553780       13.6823584582
  H         6.2945816608       10.2016559701       30.3773552465
  H         5.3768505775        9.2539025086       29.1601933926
  C         5.3772098845        8.4265869087       31.0908267377
  H        -5.2903724673       11.9113886265       26.0953068859
  H        -5.2977104502       10.4730806433       25.1848530405
  C        -7.2348620363       11.2798409865       25.7627848945
  C        -2.3896639092       16.5942744494       35.0855116384
  S         4.6443538797        9.8182368927       11.0565464099
  C         4.0928141261        6.8141553327       11.1515967722
  H         5.4653516477        8.7170993925       32.1472805201
  H         4.4002638266        7.8856750829       31.0783445826
  C         6.5395254677        7.3459284062       30.7580382690
  H        -7.2879948573       12.3267931301       25.4566496336
  H        -7.8304672900       11.2580195007       26.7271748083
  C        -7.9671664287       10.3744415573       24.7323748969
  H        -2.3904510171       17.6688922743       34.8864073941
  C        -2.7318601880       16.2411217498       36.3525886643
  H         5.0439167685        7.0473384602       10.6130919700
  H         4.1706422497        5.7367121056       11.4738160892
  C         2.8355600602        6.7369082433       10.2728590924
  H         7.4849628479        7.5883836321       31.1768792155
  H         6.6911574832        7.2492698077       29.6779737131
  C         6.1400838352        5.9200750537       31.2227261515
  H        -8.0110652735       10.7771653990       23.7818007276
  H        -7.3592102171        9.4836281742       24.6910276078
  C        -9.4176713093       10.0796687106       25.0211917905
  S        -3.0898139188       14.7063680865       36.9207867669
  C        -2.9555858699       17.4004573140       37.2931251707
  H         2.4128123622        5.7385601423       10.2754796739
  H         2.1131477421        7.5325820837       10.5991588683
  H         3.1695382880        6.9656349847        9.2783324671
  H         5.9608864070        5.9049195816       32.2421704516
  H         7.0072301975        5.2880465200       31.0231878916
  H         5.2231382577        5.6723556178       30.5870898639
  H       -10.0304718488       10.9864490317       25.2576404111
  H        -9.6536238570        9.3071398886       25.6979956451
  H        -9.8717298378        9.7460846939       24.0884440801
  C        -3.5209039463       15.5196930174       38.4447061885
  N        -3.4071745045       16.8771502916       38.4270851340
  O        -2.5512774310       18.5653994473       37.0817126892
  S        -4.2264788204       14.6982170420       39.8836131112
  C        -3.6868957281       17.6491781378       39.6355179032
  H        -3.9787088727       18.6788307755       39.2972356193
  H        -4.5903000008       17.3250570295       40.2047747967
  C        -2.5428962048       17.6930462360       40.5550548481
  H        -1.6425939370       17.9454079928       39.9449365942
  H        -2.6688310799       18.4005930000       41.2995134411
  H        -2.3257466753       16.7499989197       41.1368529696
  H         7.3007386151       11.6412114082        3.4477389136
  C         7.9658636460       10.8674613930        3.4954068032
  H         7.3051535255       10.0098358769        3.7349130370
  C         8.9222904963       10.9091196280        4.6878894726
  C         8.7667301693       10.6251854169        2.1784443282
  C         8.1765088436       11.0819943045        5.9685273007
  H         9.5172168761        9.9977099105        4.5891488656
  H         9.6452804764       11.7573694057        4.5933286335
  H         9.5272135656       11.4247034683        2.1714633316
  H         8.0864090629       10.7647543076        1.2856281914
  H         9.3786699032        9.6690828025        2.1794944667
  C         7.4746752142        9.7945984166        6.5939720057
  H         8.7777159860       11.4702196999        6.8340068226
  H         7.3075341667       11.7583682941        5.7226270027
  C         6.6457662136        9.9910237670        7.8236701069
  H         8.1611975639        8.9575439346        6.8352311482
  H         6.8993343050        9.4319019400        5.7876604074
  C         5.3856313789       10.8280154923        7.5962886051
  H         7.3070190812       10.4518708985        8.5898421845
  H         6.4134377689        9.0833765502        8.3504391618
  C         4.2305295672       10.0856961395        6.9827774912
  H         5.0691049582       11.3796303356        8.4948396397
  H         5.5538671674       11.6606039604        6.9275718632
  C         2.9176689536       10.9081654073        6.8700855613
  H         3.9984041577        9.3260122305        7.6908495006
  H         4.5886441946        9.6037805992        6.0531486464
  C         3.1149452465       12.2665542985        6.2252739553
  C         2.4210092147       11.5061717131        8.1814847722
  C         1.7968127897       10.0606485133        6.1067554212
  C         2.8301973278       13.3130865763        7.0948434851
  C         3.4317115881       12.7159904683        4.9026826950
  C         2.3949262613       12.8638492863        8.3006230228
  C         1.9845184029       10.8124804255        9.3386023922
  H         2.3392823224        9.6488948796        5.2774038057
  H         1.5658310731        9.2483097462        6.8169845441
  C         0.5576599073       10.9184027328        5.8576366123
  S         3.1740888320       14.8897837969        6.3146427308
  C         3.5309758956       14.0879009343        4.8527856118
  H         3.7426333827       11.9395547438        4.2413027257
  C         2.0161568665       13.4215804949        9.5214311937
  H         2.1176296358        9.7207563168        9.2429280095
  C         1.4778324173       11.3769990904       10.4804370518
  H         0.8812944931       11.7364388219        5.3333841667
  H         0.1047236757       11.3397023122        6.8068140277
  C        -0.4696857636       10.2454230747        5.0939363389
  C         3.9469741812       14.8494947502        3.6414182345
  C         1.5254978910       12.7110514024       10.6473893887
  H         1.8872210621       14.4555689986        9.5866490039
  C         0.9515795057       10.9427666776       11.7253895842
  H        -1.4326349988       10.6281699349        5.3877783544
  H        -0.5301032782        9.1893372065        5.2360406600
  C        -0.2830151991       10.4891678390        3.6233360007
  C         3.9685350965       16.2005317777        3.4370006039
  C         4.2420849741       14.0077080587        2.4112802406
  C         0.8948522971       13.3599326088       11.9452813849
  C         0.6195089509       12.0082035880       12.5507076841
  S         0.6550156738        9.4165559154       12.4122304794
  H         0.6627643304       10.1187465829        3.2145132572
  H        -0.1590126568       11.5832443044        3.4308819947
  C        -1.4134067762        9.8700567413        2.8124740471
  N         3.5456474350       17.1590844197        4.3031461843
  C         4.2918103357       16.7948519361        2.2107993505
  C         4.5256436073       14.5590071776        1.1773634914
  H         4.0974273052       12.9158281567        2.4599408692
  C        -0.3314977853       14.2022898868       11.7427711123
  C         1.9028474964       14.1309957727       12.9093757410
  C         0.1880602289       11.5614874279       13.8043265927
  C         0.1280457980       10.2111626718       13.8611426704
  H        -1.9656088391        9.1728441715        3.3863443777
  H        -2.1884954581       10.5763063260        2.5166223122
  C        -0.9891680059        9.1361833438        1.4597569374
  S         3.7544776273       18.6330814928        3.5479108056
  N         4.1090965370       18.1521512477        2.0910047690
  C         4.6014749104       16.0490645784        1.0499254163
  H         4.8916441274       13.9128844564        0.4057095824
  H        -0.1336870130       15.0565842453       11.1641942296
  H        -0.6795320531       14.5105769162       12.6928870276
  C        -1.4823769287       13.4105280385       11.0016415780
  H         2.0890852122       15.0815298100       12.5543146878
  H         1.3884102008       14.3471671763       13.8428696245
  C         3.1778565817       13.4606784967       13.2985997369
  H        -0.0224760797       12.2948603736       14.6149874687
  C        -0.0296986169        9.4550763732       15.1486241214
  H        -1.7702631048        8.5285031365        1.0283084006
  H        -0.2178614327        8.4187754460        1.7460769766
  C        -0.3876892281       10.1212755628        0.4199393632
  C         4.7894485288       16.7400394260       -0.1737880669
  H        -1.1213698312       12.8203491089       10.1706492220
  H        -1.8469737047       12.8150555082       11.7840242886
  C        -2.6656661394       14.3333541819       10.5508080113
  H         3.6253681103       13.1215516682       12.3543739746
  H         2.9680338138       12.6159399468       13.9498710818
  C         4.1908274297       14.2854978365       13.9257614078
  C        -0.1164292764        8.0339222885       15.3175653083
  C        -0.2604612883       10.2023659122       16.3453081797
  H        -0.3865260628       11.1528987020        0.7685602650
  H         0.6193646803        9.6155569175        0.3541542839
  C        -1.0356580625       10.1132910369       -0.9218738241
  H         4.5578543530       17.8095854455       -0.3168328119
  C         5.2753242271       16.2789153457       -1.3770125835
  H        -2.2475917582       14.9416063260        9.7904048656
  H        -3.0308239393       14.8941886563       11.3279288541
  C        -3.7927030681       13.5192714362       10.0051064850
  H         4.5808956612       14.9446713400       13.2159117083
  H         3.7494360127       14.9175048563       14.7013885751
  C         5.4207259511       13.4881412005       14.4966862743
  N         0.0946664932        7.0856124175       14.3284785087
  C        -0.4473465675        7.4622194416       16.5116602914
  C        -0.4908395162        9.6078026620       17.5378489799
  H        -0.1810704457       11.2549761308       16.2542568110
  H        -2.0344002416       10.5869082429       -0.9405920163
  H        -1.0235554894        9.1062207115       -1.3492062738
  H        -0.3892506611       10.7468263704       -1.5525831028
  S         5.6125253027       14.6683986888       -1.8461786134
  C         5.2829553355       17.1781712834       -2.5356780715
  H        -3.3735164245       12.7108131431        9.3343860918
  H        -4.2897874193       12.9700069385       10.8007472801
  C        -4.8533411799       14.3868444112        9.2292930370
  H         6.0841374370       12.8823984625       13.9258091582
  H         4.9479596876       12.7524902925       15.1666942705
  C         6.1840341400       14.5297119939       15.3514067875
  S        -0.2813994931        5.6706626747       14.9652266799
  N        -0.3997154644        6.0799817974       16.5193409201
  C        -0.7560637862        8.1597908963       17.6915561657
  H        -0.5908379318       10.2856511443       18.3671265061
  C         5.8480321122       15.2659751372       -3.5161135599
  N         5.7485501670       16.6215531982       -3.6333213455
  O         4.9782210985       18.3458781878       -2.5004590980
  H        -5.3290503871       15.1950714394        9.8149640008
  H        -4.2975889266       14.9159137234        8.5071932067
  C        -5.8551380251       13.4547360404        8.5498624869
  H         5.5055825592       14.9877623772       16.1397940077
  H         6.9523062284       14.0083733194       15.8305600346
  C         6.8190996322       15.5945697183       14.5048127324
  C        -0.9186306272        7.4394495865       18.8791546327
  S         6.2847151689       14.3938975420       -4.9228640151
  C         5.9152290795       17.3804380363       -4.9190216162
  H        -5.4556331413       13.1302181235        7.6359284188
  H        -5.9129958321       12.4872090592        9.0689326762
  C        -7.1866083201       14.1543804137        8.3597229195
  H         5.9788830073       16.2342921408       14.3102358339
  H         7.1812767554       15.0108019817       13.5788219005
  C         7.9166842900       16.3527496915       15.2569730535
  H        -0.5410476735        6.4481295367       18.8468677779
  C        -1.3122608976        7.8901369838       20.1237608570
  H         6.6595988710       17.0655907374       -5.7082359756
  H         6.2825487586       18.2784018818       -4.6125402262
  C         4.5932632964       17.4914197420       -5.6859838933
  H        -7.7666451768       13.5431598920        7.6357977484
  H        -6.9537346210       15.1195481245        7.9814483333
  C        -7.9784563784       14.1740895852        9.6729396178
  H         7.9277789883       16.0723748361       16.3104867841
  H         8.8654194696       16.2402316602       14.8116663978
  C         7.6488605602       17.8923316683       15.3208125742
  S        -1.7303177438        9.4702914459       20.5174345511
  C        -1.4153733922        6.8745941058       21.2214020611
  H         3.7928639006       17.5863143628       -5.0141200571
  H         4.4671505033       16.6673709673       -6.4236293389
  H         4.6034971887       18.3259121659       -6.3002844131
  H        -7.6306512495       13.3876795020       10.3439020886
  H        -7.9068746225       15.1303402775       10.0480474125
  H        -9.0027777404       13.9047751838        9.6790119650
  H         6.5558132276       18.0840524074       15.2237880232
  H         7.9672470958       18.2045955688       16.2840682762
  H         8.2422079482       18.3146971781       14.5471876605
  C        -2.1124102220        8.7760770558       22.1498185444
  N        -1.9308245514        7.4250275133       22.3030123360
  O        -1.1707707097        5.6650307703       20.9772836521
  S        -2.6710915736        9.6462894945       23.4644138491
  C        -2.0051295058        6.6530701208       23.4568034172
  H        -2.1713904124        5.5454153793       23.3753528547
  H        -2.8819490407        6.9601890314       24.1116633802
  C        -0.6998925871        6.8116531360       24.2734006788
  H         0.1879544051        6.8072187845       23.6738394621
  H        -0.6876463582        5.8950368914       24.9327441088
  H        -0.7504286519        7.7241684374       24.8761269920
