352
i =
  H        -3.7015632697       14.7595222680       16.1501460618
  C        -3.5819189717       13.7275341335       16.4868713011
  H        -4.5870179368       13.5233014509       16.7637354305
  C        -2.5136920924       13.6072447416       17.5697870811
  C        -3.1618405724       12.8281638105       15.3145366771
  C        -3.0370870302       13.4451465096       18.9992205855
  H        -1.9173002758       12.6635704513       17.5936864260
  H        -1.7790171212       14.4230765113       17.4459911849
  H        -2.7602568536       13.5121626226       14.5464678424
  H        -2.3904536019       12.0220385433       15.5983459451
  H        -4.0265616736       12.2871164628       15.0328467956
  C        -1.9208812241       13.6027915421       20.1052493786
  H        -3.4522260530       12.4873561386       19.0330175515
  H        -3.8557381327       14.0714875211       19.1942599981
  C        -2.4390025048       13.2928018972       21.4711135365
  H        -1.0442890307       13.0461935073       19.8622321225
  H        -1.5564229903       14.6218362036       19.9098927958
  C        -1.4275614147       12.5247429092       22.3449691996
  H        -3.2479211178       12.5144539246       21.3715470907
  H        -2.8336602899       14.1928865176       21.9127679680
  C        -0.3336558978       13.4994169848       22.7831492956
  H        -1.9392663677       12.1950611892       23.2171892158
  H        -1.0915083903       11.6746560371       21.7355281600
  C         0.8551306772       13.0146486357       23.5845494921
  H         0.1221107732       13.9210433596       21.8902235639
  H        -0.7421834283       14.3226032660       23.3797111371
  C         1.3518824431       11.7024852096       22.8829731138
  C         0.5106573220       12.2274779795       24.8689223477
  C         2.0025738395       14.0423570902       23.7882545561
  C         1.1769027149       10.5521826807       23.7210480083
  C         1.9057274964       11.4112703221       21.6504914210
  C         0.6614950842       10.8733554535       24.9266044511
  C         0.1064499841       12.7649904979       26.1214664133
  H         1.8953258291       14.8622972401       23.0469376292
  H         1.6874128416       14.5319828623       24.6823413231
  C         3.4371762966       13.3771031824       24.0960424994
  S         1.6420551420        9.1606307803       22.8978583321
  C         2.1079139478       10.0493641409       21.4573113754
  H         2.0319544820       12.1519057430       20.9160282510
  C         0.3716843948       10.2453670257       26.1160619564
  H        -0.1837297049       13.7946338495       26.0765232627
  C        -0.1023267468       12.1214797457       27.2856509039
  H         3.7887708716       12.7964955562       23.2867533699
  H         3.3056146405       12.7564841359       25.0383193991
  C         4.4870385815       14.4215860631       24.5580363438
  C         2.5075295335        9.3789263387       20.2082154032
  C        -0.0185467436       10.8068300094       27.3438632845
  H         0.6304859432        9.1812269304       26.0632565762
  C        -0.5099777417       12.6116048531       28.4622271445
  H         5.3608970513       13.9578654948       25.0672937713
  H         4.0545065721       15.1985762825       25.2356142020
  C         5.1663036337       15.1500727352       23.4260969940
  C         2.5754188932        7.9663257336       20.0614108496
  C         2.6611101176       10.1599490204       18.9476366818
  C        -0.4142695547       10.1435781615       28.6534869813
  C        -0.6727376967       11.5151994133       29.3202671621
  S        -0.8369372847       14.0609778163       29.2333315239
  H         5.6382553405       15.9329699869       23.9398109337
  H         4.3956040439       15.4526075297       22.7451583022
  C         6.2403256676       14.3717807579       22.7239193474
  N         2.4571433922        7.0277968531       21.1148974322
  C         2.7756101103        7.3303104591       18.8613044525
  C         2.8389040972        9.4693916425       17.7026416805
  H         2.4280785808       11.1807122251       18.9864297108
  C         0.7305644683        9.3396759623       29.2993711219
  C        -1.7244691836        9.3042193187       28.6486708946
  C        -1.0647100432       11.9436445770       30.6166092322
  C        -1.1749098583       13.3052822495       30.7252458674
  H         7.0166710020       15.0486118620       22.5365061604
  H         6.7007991916       13.6590077101       23.3939011577
  C         5.9702777284       13.7745437954       21.4039814419
  S         2.5538782382        5.4754435236       20.5706006702
  N         2.8280794404        5.9208641914       18.9880610024
  C         2.9439869416        8.0058123419       17.6183373865
  H         3.1403835586       10.1069505147       16.8104295003
  H         1.1642629618        8.8220205285       28.5079914530
  H         0.4488356678        8.5649866413       29.9828282054
  C         1.8251354039       10.1833895260       29.9410144233
  H        -1.4171091448        8.4314676340       28.0767286971
  H        -1.8785569191        9.0027422868       29.6774806797
  C        -3.0430458430       10.0915778109       28.1090599889
  H        -1.2824943730       11.2437757970       31.3886874088
  C        -1.5138234517       13.9929749177       31.9945944297
  H         5.2203748345       14.4459055140       20.9267907877
  H         5.5201174630       12.7705435116       21.5679833835
  C         7.1960479887       13.6146419217       20.4855369563
  C         3.1372503779        7.3112311284       16.4020162367
  H         2.0853668921       10.9541037929       29.2977860093
  H         1.5938494658       10.6522566481       30.9117333177
  C         3.0206968162        9.3320607802       30.4400513912
  H        -2.7611292976       10.8334246182       27.3971499709
  H        -3.3575677159       10.6952214182       28.9941914978
  C        -4.1949900367        9.2492500809       27.7050524248
  C        -1.6114030926       15.4271735695       32.1358309573
  C        -1.7642031709       13.1789924404       33.2414390205
  H         7.9844545399       14.2856784655       20.8324256884
  H         7.6174363498       12.7199318795       20.7555370970
  C         6.8888142138       13.4602785772       19.0014318879
  H         3.0352966065        6.2412775389       16.4677088808
  C         3.3997397042        7.7047872606       15.1123853686
  H         3.4405605726        8.7892337415       29.6053736322
  H         2.5649973473        8.6252475838       31.1641232754
  C         3.9905336686       10.2974349804       31.1958295080
  H        -3.8450587052        8.7199463665       26.8042267534
  H        -4.2356713795        8.4186150917       28.4924434921
  C        -5.5053898939       10.0588857148       27.4779534446
  N        -1.3377584032       16.3594070116       31.1186641513
  C        -1.8882754937       16.0413454407       33.3754092557
  C        -2.2012978817       13.8467172690       34.4617339842
  H        -1.7067154485       12.1333105985       33.1824589148
  H         6.9461408122       14.4271913038       18.3907065356
  H         7.6533456074       12.7770902869       18.5019477532
  H         5.9226448627       13.0590530573       18.8278097949
  S         3.7605210192        9.3373852313       14.5710514853
  C         3.4820646228        6.6451955791       14.1004440290
  H         3.7725017450       11.3540307384       31.0394487132
  H         3.7936782673       10.0322682683       32.2166193605
  C         5.4457862422        9.8910556674       30.8162238794
  H        -5.1986982486       11.0164822238       27.2006617674
  H        -6.0251561305       10.2134682271       28.4125935077
  C        -6.4373034541        9.5627556769       26.4231798118
  S        -1.4639771481       17.8905362639       31.7645323860
  N        -1.8547279187       17.4421236044       33.2515555514
  C        -2.2627329561       15.3468962079       34.5114703302
  H        -2.4196681148       13.2569521751       35.3156894511
  C         3.9192606951        8.5630439635       12.9579670997
  N         3.7938622017        7.2080938360       12.9237316635
  O         3.1254044910        5.5231374046       14.3068172384
  H         6.0277902060       10.7790697450       31.1097348288
  H         5.4749887365        9.8041153451       29.6960324138
  C         6.0218830634        8.5757578386       31.4547577571
  H        -5.9176262549        9.0024953277       25.6572564069
  H        -6.9722326459        8.7836091757       26.9385040835
  C        -7.2405373238       10.6651692593       25.8195903152
  C        -2.7318331296       16.0209527240       35.6791005520
  S         4.4848455979        9.3683332956       11.4934057543
  C         3.7599537525        6.3363727910       11.7762747647
  H         6.9719254642        8.7183683343       31.9309260062
  H         5.2618468874        8.3134013783       32.1947394759
  C         6.1139296031        7.3328330567       30.5019534808
  H        -6.6751030692       11.2418279137       25.0456315720
  H        -7.4764238131       11.4301408631       26.6206872221
  C        -8.5010716995       10.0852336565       25.2105191088
  H        -2.6776151282       17.0838330987       35.5824559200
  C        -3.0839112293       15.6128392779       36.9547670818
  H         4.6226604206        6.5094018474       11.1123070242
  H         3.9326313386        5.2830097458       12.0016314688
  C         2.4164526862        6.5415445173       10.9750464506
  H         6.4765526169        7.7401131775       29.5360679110
  H         5.1342498013        6.9545984080       30.3328553276
  C         7.0889352756        6.2648188876       30.9080326335
  H        -8.5600315730       10.6728990409       24.2838926112
  H        -8.2908076712        9.0384527754       24.8462456132
  C        -9.6862300122       10.0084376479       26.0669690912
  S        -3.7104200666       14.0717676696       37.5086680391
  C        -3.2054018785       16.6864183125       38.0040603157
  H         1.6661740438        6.6497722208       11.7786651993
  H         2.3443769265        7.4214848949       10.3544125099
  H         2.1435624259        5.6555411425       10.3514312434
  H         6.7142666847        5.7180398373       31.8226397240
  H         8.1015703523        6.7298949217       31.0653715211
  H         7.1446626333        5.4334883105       30.1288561870
  H       -10.0985814462       10.9920776368       26.3829625132
  H        -9.4189190833        9.4304357967       26.9763152631
  H       -10.4491670424        9.5241782771       25.5101469353
  C        -3.8953403406       14.8774702064       39.0573956885
  N        -3.7755981040       16.2298553723       39.1127385543
  O        -2.9120271691       17.8665927337       37.7521799548
  S        -4.5577576655       14.1276128948       40.5366069870
  C        -3.8705085433       17.0719890341       40.3623444302
  H        -4.3472271413       17.9676563067       40.0328944515
  H        -4.5017721745       16.7413820925       41.1673701278
  C        -2.4960265891       17.3977003854       40.9693831962
  H        -2.1202649670       18.2310392611       40.3517323993
  H        -2.6535048866       17.8092871494       41.9115756342
  H        -1.7679878407       16.5465168064       40.9240994988
  H         7.6323961925       11.0018011030        3.9576273439
  C         8.3488413772       10.2107605380        4.0236456238
  H         7.7613304050        9.3606359967        4.0046776717
  C         9.0334838196       10.1774439006        5.3820836361
  C         9.3404190310       10.2584334484        2.8607059765
  C         8.1108797821       10.4197338310        6.5987644984
  H         9.4174282616        9.1243467256        5.5809330668
  H         9.8861201783       10.8260591006        5.4536916645
  H         9.9608993298       11.1734134071        2.9377760512
  H         8.9589189056       10.2005474506        1.8394883536
  H        10.0623653182        9.3889645888        2.9828732165
  C         7.2807006110        9.1843384145        6.9652415029
  H         8.7766532033       10.6595073018        7.4381971805
  H         7.4330465650       11.2413044621        6.4792480935
  C         6.5389434227        9.4048508571        8.2955842339
  H         7.9522247568        8.3897430596        7.1242470021
  H         6.6167353704        8.9924143850        6.0793853198
  C         5.2873704734       10.2496594586        8.1808121682
  H         7.2598797614        9.7843433849        9.0579528099
  H         6.0772465827        8.5161703009        8.6648852940
  C         4.0583874856        9.5006451638        7.8020130110
  H         5.3045374380       10.7003134935        9.1855018689
  H         5.4135720366       11.1185580812        7.4738677889
  C         2.8049783934       10.3644604715        7.5294910495
  H         3.7893701997        8.9176772322        8.7252464884
  H         4.2713522655        8.8211020604        7.0083330048
  C         3.1821610960       11.7740010695        6.8612989256
  C         2.3341375225       11.1656165790        8.7132718604
  C         1.6678644476        9.8008838893        6.5989720044
  C         2.9115991627       12.9070506118        7.6454537566
  C         3.7032163034       12.1729468509        5.6351600246
  C         2.4128552822       12.4654623857        8.8313697498
  C         1.8371484358       10.5005672247        9.8289302246
  H         1.9780920283        9.4097865618        5.6301134501
  H         1.3399964340        8.9163510407        7.0909190104
  C         0.4989100929       10.7342112400        6.3560855201
  S         3.1391206189       14.3593628146        6.8845696058
  C         3.8343127096       13.5149112028        5.5110354358
  H         3.9289617046       11.4253596197        4.9087208875
  C         1.8830238250       13.0973914645        9.9230576412
  H         1.8212850917        9.4612508777        9.7133024601
  C         1.3135919618       11.1087650577       10.9268261257
  H         0.6357984803       11.7442700834        5.9853093128
  H         0.0636122861       10.8381391335        7.3961941936
  C        -0.5703026195       10.0649734367        5.4652179610
  C         4.2939758134       14.1641529079        4.2532240730
  C         1.3483744508       12.4565002651       11.0441519968
  H         1.9685062833       14.1702400454        9.9725702400
  C         0.7942385126       10.6352629585       12.1385187697
  H        -1.5022082143       10.6112893752        5.5953264774
  H        -0.7417383660        9.0114621902        5.7057663356
  C        -0.2896660837       10.2761065995        3.9995254667
  C         4.2851425414       15.5446309983        3.9796038613
  C         4.5992830067       13.2963976566        3.1121294038
  C         0.7824646824       13.1547278761       12.3141528804
  C         0.5741271558       11.7438354992       12.9395978984
  S         0.6833193496        9.1245791000       12.9272884019
  H         0.7666212512        9.9988960274        3.7316940816
  H        -0.4518138522       11.3761878123        3.7265148336
  C        -1.2851941613        9.5581043503        3.0618235300
  N         4.0391350094       16.5163475029        4.9352280797
  C         4.4209061737       16.0441404485        2.6842516983
  C         4.9251616006       13.7996285297        1.8997944058
  H         4.5876197476       12.2491930619        3.2817917669
  C        -0.4981668352       13.9438331181       12.1315442034
  C         1.9095114619       13.9669444911       13.1645994408
  C         0.1642372177       11.3607988567       14.2330692542
  C         0.2242351829        9.9958305067       14.3960509752
  H        -1.4587406915        8.5713979119        3.4594447749
  H        -2.3237013218        9.9590977652        3.0636427122
  C        -0.6311997809        9.5396455053        1.7072577507
  S         3.8021433048       17.9636106345        4.1057847947
  N         4.2123103832       17.4257383070        2.6064606529
  C         4.8473255631       15.2639271111        1.5934742712
  H         5.3094604492       13.1940754391        1.0759478432
  H        -0.2841838188       14.8650073835       11.5747793047
  H        -0.8310461435       14.3613767350       13.0959946733
  C        -1.6898723441       13.3528015640       11.4104466771
  H         2.2859876499       14.8450167719       12.6493501558
  H         1.3653372644       14.2549818575       14.0910859925
  C         3.2057881667       13.1010949648       13.4145025896
  H        -0.0811344313       12.1474603613       14.9585500395
  C        -0.0962557085        9.2360646188       15.6109150368
  H         0.1152149002        8.7876722017        1.6479659979
  H        -0.0425589820       10.5137329744        1.6194626656
  C        -1.6523199477        9.4036007901        0.5834419904
  C         5.0499823477       15.8679157465        0.3567969886
  H        -1.3494014372       12.9831422445       10.3876337426
  H        -1.9161589965       12.5082157437       12.0807291907
  C        -2.8490303566       14.3017877009       11.1940430808
  H         3.6839970956       12.8952103066       12.4578030422
  H         2.9302184514       12.1320820484       13.8777990374
  C         4.1626805681       13.8262428444       14.3472689700
  C        -0.1415253072        7.7910187396       15.7937635297
  C        -0.3204467180       10.0119491247       16.8500477262
  H        -1.9984923448        8.3445870051        0.4731870809
  H        -2.5890363827        9.9764048887        0.8322467465
  C        -1.2098513420        9.9556974677       -0.7946853315
  H         4.8050372329       16.9686902041        0.3066886841
  C         5.3396481372       15.4276871204       -0.8805315974
  H        -2.5740377336       15.1302361527       10.6041127521
  H        -2.9572756788       14.8617666204       12.0839995110
  C        -4.2306245732       13.7611260012       10.7841010808
  H         4.3285617505       14.8791959539       14.0257801942
  H         3.7674384434       13.9411729299       15.2884605542
  C         5.3232531313       12.8257964896       14.4381463808
  N         0.0872382841        6.7785429574       14.8042183165
  C        -0.3183516366        7.1734440690       17.0427174236
  C        -0.4963207121        9.4123426546       18.0390190148
  H        -0.3026307275       11.0640192452       16.7756392823
  H        -1.8366228997        9.4784530404       -1.5927128918
  H        -0.1300254997        9.8174707768       -1.0225802288
  H        -1.3418802937       11.0077440478       -0.9559287840
  S         5.6249812837       13.7702770790       -1.3678075099
  C         5.3948253144       16.4527850841       -1.9625363289
  H        -4.4599344307       12.8849673115       11.3858150604
  H        -5.0312517754       14.4809559407       11.0408180305
  C        -4.3464931870       13.5211290256        9.3000192593
  H         5.5541155196       12.5246050453       13.4255667424
  H         4.9855853651       11.9004898002       14.9654166690
  C         6.5648044308       13.3814700409       15.1172044144
  S         0.1440015473        5.3032498619       15.4987927211
  N        -0.1678120750        5.7655253106       17.0300135830
  C        -0.4068788223        7.9461075678       18.2277826693
  H        -0.5282543313       10.0404989891       18.9552953815
  C         6.1059412473       14.5806949215       -2.8524139480
  N         5.8997681187       15.8636070521       -3.0554965230
  O         5.2008310414       17.6717507271       -1.8245321440
  H        -4.0659398068       14.3640375318        8.7548571085
  H        -3.6043658643       12.8058910621        9.0272508601
  C        -5.7371884308       12.9649013744        8.9163410672
  H         6.3780864918       13.6259989031       16.1684169946
  H         7.3125596003       12.6044119262       15.2460918162
  C         7.2647878451       14.4698677971       14.2782775863
  C        -0.5126346412        7.3409521290       19.4665626514
  S         6.2693163477       13.6300540380       -4.3898320330
  C         5.9531495165       16.6415019377       -4.3510089977
  H        -5.5096336823       12.3171309112        8.1461585333
  H        -6.0601543511       12.2731490818        9.7440224533
  C        -6.8504011225       14.0308627048        8.6630744311
  H         6.7124195488       14.6997170364       13.3505542264
  H         8.2802604759       14.1682872759       13.8522151177
  C         7.6299430089       15.6973949351       15.1432701773
  H        -0.1482102083        6.3372119607       19.4352655172
  C        -1.1308051693        7.6804474211       20.6782453609
  H         6.5785722450       16.1877212880       -5.0984866060
  H         6.4171301711       17.6092807202       -4.1765450785
  C         4.5649230777       16.6912187716       -4.9509757252
  H        -7.4545381962       13.8393271350        7.7603233997
  H        -6.3697451749       15.0287547068        8.6399878930
  C        -7.8223211350       14.1059741822        9.8257132217
  H         6.6946868720       16.1921331020       15.2745257091
  H         7.9857916079       15.5344990527       16.1713666003
  C         8.6803740329       16.5631438614       14.5048575317
  S        -1.8842146064        9.1508257070       20.9719112367
  C        -1.3373085552        6.6906792864       21.7141801720
  H         4.2221145627       15.7529363820       -5.3354662038
  H         4.5800807824       17.5071485407       -5.6721777663
  H         3.7688055811       16.7297614072       -4.1957346569
  H        -8.4988131621       14.9404487903        9.7140349343
  H        -8.2243282345       13.1384131733        9.8236508078
  H        -7.2129142327       14.1609128845       10.7630473784
  H         8.3367335074       16.7823600225       13.4509997332
  H         8.6987630394       17.5042645232       14.9991674890
  H         9.6669111962       16.0319705567       14.6387982305
  C        -2.2289537747        8.5269035589       22.6276822744
  N        -1.9453546558        7.2123271951       22.7686947739
  O        -0.8334115023        5.5668893563       21.5983901128
  S        -3.2729065681        9.3565142951       23.8731736050
  C        -2.1306798605        6.2960214616       23.9020578826
  H        -2.0573129720        5.2241695250       23.6549239931
  H        -3.0883876698        6.4927681389       24.3985304684
  C        -0.9293853572        6.5632101352       24.8764938699
  H        -0.5778447587        5.5911280497       25.2780566530
  H        -1.3583627026        7.1137420097       25.8140867976
  H        -0.1057226324        7.0916156476       24.4164812638
