352
i =
  H        -2.9924426706       15.4754639017       15.8187872586
  C        -3.1091645628       14.4057522622       15.9932760331
  H        -4.1639366824       14.0989301843       16.1543076255
  C        -2.1123136164       13.9143147232       17.0911350291
  C        -2.7426831100       13.8062838112       14.6251861398
  C        -2.7570216150       14.0668789335       18.3836258707
  H        -1.9430025565       12.8784041188       16.9202988546
  H        -1.2086003511       14.4711352985       16.9354317732
  H        -3.0390588954       14.5997079864       13.9223641528
  H        -1.7211709155       13.7123985265       14.5061289867
  H        -3.2296749703       12.8813714826       14.3953038442
  C        -1.9300524817       13.4004193496       19.4861290309
  H        -3.7662137486       13.5796336694       18.4904955884
  H        -2.7374861149       15.1048704405       18.6025958434
  C        -2.5915024331       13.4211682443       20.8600584087
  H        -1.5607398476       12.4093907808       19.1718516709
  H        -1.1086373633       14.1099896773       19.4673906594
  C        -1.5421310172       12.8847972652       21.9152641769
  H        -3.5662643203       12.8700958804       20.9543455551
  H        -2.8492174264       14.4075209799       21.2072440752
  C        -0.1830445085       13.7337939270       22.0173472472
  H        -2.0207484907       13.0076646829       22.8780547177
  H        -1.4186711422       11.8506468902       21.7183641188
  C         1.0314565697       13.1603663451       22.7485694487
  H         0.2061622647       14.1124868612       21.0652298788
  H        -0.3805513321       14.6627034495       22.5933898921
  C         1.4626468224       11.8022506019       22.0634302206
  C         0.6356714832       12.3819839527       24.0253304792
  C         2.1805423817       14.2175788730       22.9504869877
  C         1.1724818078       10.7111830778       22.8743565209
  C         2.0510527085       11.3768466705       20.9003886153
  C         0.7725444785       11.0724001129       24.1343308996
  C         0.3081176195       12.9833304621       25.2464794656
  H         2.5321382245       14.7033608658       22.0569742910
  H         1.7003190659       14.9443499627       23.5649993320
  C         3.3502111496       13.5904645087       23.7400211442
  S         1.5910943242        9.1349186761       22.1057021672
  C         2.1806049156       10.0167010585       20.7650497887
  H         2.3284490172       12.1590154335       20.1502574215
  C         0.4324585540       10.4094306315       25.2675356584
  H         0.3974795636       14.0699458538       25.1779464038
  C         0.0189338206       12.3490915914       26.3960645403
  H         3.5674219401       12.6191862476       23.4056496979
  H         3.1813745335       13.5498566747       24.8188223949
  C         4.7245105791       14.2460199914       23.5244484743
  C         2.7241242274        9.3351060568       19.5052523639
  C         0.0304846302       11.0161772902       26.4954338646
  H         0.4461787843        9.2768049134       25.3001590663
  C        -0.2686740957       12.7897463506       27.6663390162
  H         5.4060036071       13.4577303036       23.9078312187
  H         4.8499551061       15.0578261529       24.2299864265
  C         5.1943765493       14.4493070545       22.0923461759
  C         2.5903207147        7.9968260273       19.2361177426
  C         3.2260249361       10.1522370160       18.3667616186
  C        -0.3827293227       10.3828822020       27.7910278280
  C        -0.5630120952       11.7672460317       28.5502631045
  S        -0.6855565715       14.3477532579       28.3811290978
  H         6.1887155528       14.9308653194       22.2585763470
  H         4.5744099428       15.2698411274       21.6717965210
  C         5.4317737993       13.1900803929       21.2701974989
  N         2.0467418194        7.0913336886       20.1836701567
  C         2.9178658533        7.3945138079       18.0492259727
  C         3.5438112137        9.5342153164       17.1530700912
  H         3.3756506864       11.2020980587       18.4277519335
  C         0.6092039195        9.4757109159       28.4252686629
  C        -1.7102311954        9.4970127307       27.6200124127
  C        -1.0396310716       12.2382680517       29.8072034152
  C        -1.0873852176       13.6093514726       29.8423966522
  H         6.2258806236       12.5955540650       21.5537711097
  H         4.5159832382       12.5525471160       21.3383177460
  C         5.6208035838       13.3783895042       19.7396529907
  S         2.2021606304        5.5599650607       19.4960324936
  N         2.6136004842        6.0158434117       18.0016509401
  C         3.4040496081        8.1132780164       16.9292060229
  H         3.9294558975       10.1075942525       16.3631593865
  H         1.0526329203        8.8630944002       27.6031244588
  H         0.1591516334        8.7946466336       29.1272898057
  C         1.8215178864       10.1780924972       29.0260415641
  H        -1.6075686087        8.6791932338       26.8511134628
  H        -1.9559659707        8.9662342545       28.4702291776
  C        -2.9284344336       10.2788638295       27.2104596059
  H        -1.2697979608       11.4962355241       30.5158565181
  C        -1.5679741483       14.3609325592       31.0672225609
  H         5.0352688908       14.1871324569       19.4470879333
  H         5.2775623830       12.5392650904       19.2109863435
  C         7.0583997444       13.6575845312       19.3761826568
  C         3.7196844675        7.3853776613       15.7214144313
  H         2.1667620787       11.0021494643       28.3435300930
  H         1.4427140154       10.7332635163       29.8917784303
  C         2.9900105089        9.2719280078       29.3835088076
  H        -2.7632802557       10.8816803624       26.2693690718
  H        -3.2033722462       11.0071695712       27.9374023982
  C        -4.1953508331        9.3724861621       27.0029080449
  C        -1.6405402720       15.7324545970       31.2904643798
  C        -1.8718761514       13.5579236032       32.2572946200
  H         7.4697215567       14.4609586336       19.9788450255
  H         7.5131151291       12.7914244696       19.7369027635
  C         7.2337513133       13.9234861202       17.8742031477
  H         3.7722449190        6.2759182008       15.7876256003
  C         4.0130014651        7.7402299304       14.4025218576
  H         3.5600113323        9.0836136901       28.4739711384
  H         2.5387228256        8.4030797704       29.9382482382
  C         3.7667368868        9.7915344190       30.5715260972
  H        -3.9408782403        8.6440086772       26.2331475462
  H        -4.4961792814        8.6759064638       27.8408424258
  C        -5.4833527137       10.2395021834       26.7394479449
  N        -1.3507997277       16.6946156306       30.3097426291
  C        -2.1578124059       16.3155684368       32.4592334220
  C        -2.2950268600       14.0791922277       33.4594235324
  H        -1.7312117963       12.5275390055       32.2537064968
  H         8.0839172089       14.4262237278       17.6319988825
  H         7.1527266485       13.0267607619       17.3198161228
  H         6.3665748996       14.5560931547       17.6490715424
  S         4.2077697373        9.2947274427       13.8194073904
  C         4.1708968991        6.6456860295       13.4143490883
  H         3.5421985864       10.8390992291       30.7921869534
  H         3.5315299216        9.1788487560       31.4278448531
  C         5.2763941819        9.6904498752       30.3505284602
  H        -5.0560131178       11.2772395926       26.6885376480
  H        -6.2344961104       10.3195822953       27.5717403811
  C        -6.2796366249        9.7987274011       25.5436030755
  S        -1.6766404126       18.2167031284       30.8714496895
  N        -2.1607022240       17.7295979726       32.3669862004
  C        -2.4208866651       15.5625777497       33.5962547418
  H        -2.5438486812       13.4552449850       34.2455987047
  C         4.4076729191        8.5270954011       12.2135252794
  N         4.3919668075        7.1862265455       12.2161828881
  O         4.2989958231        5.4334636960       13.6842852516
  H         5.7358157243       10.6223258384       30.7058892436
  H         5.5357850971        9.6426399368       29.3099718504
  C         6.0068999479        8.5436645015       30.9928187030
  H        -5.6209144048        9.5893294302       24.7392689300
  H        -6.6596506701        8.8490824620       25.7801693720
  C        -7.3348856871       10.7727744188       25.0843345835
  C        -2.7665202463       16.2583642951       34.7844437271
  S         4.6968582161        9.4338393043       10.7746866586
  C         4.3758455689        6.4486453662       10.9777697488
  H         7.0463125521        8.5964202025       30.7318520646
  H         5.9985684334        8.5942531318       32.0843434927
  C         5.5192003416        7.1294424455       30.5176247539
  H        -7.3478757918       10.9741727021       24.0072258800
  H        -7.3049002346       11.7822607638       25.4047337055
  C        -8.7804057734       10.3227814213       25.2783220884
  H        -2.3693639962       17.2706054283       34.9254130684
  C        -3.2012343091       15.9214843147       36.0202306535
  H         5.1864097083        6.8351752471       10.4096616400
  H         4.5728956563        5.4196527158       11.2488040157
  C         2.9880454109        6.6231787583       10.3129447022
  H         5.1221851807        7.1382380506       29.5131021306
  H         4.7502168958        6.8445563461       31.1852339586
  C         6.6246815353        6.0994469755       30.6931779190
  H        -9.3316036426       10.6176327271       24.3767416147
  H        -8.8631047779        9.2935168987       25.2038122906
  C        -9.4571848630       10.9140108221       26.4600219967
  S        -3.5857810730       14.3327007829       36.6026139802
  C        -3.3230965407       16.9281951877       37.0952618771
  H         2.6787631708        7.6512130130       10.2261026888
  H         2.9324174464        6.1022449411        9.3147535340
  H         2.1752040878        6.2098316933       10.8637340360
  H         6.9795935256        6.1243822001       31.6662915991
  H         7.4505622147        6.4373549964       30.0429738292
  H         6.3172100125        5.0490338731       30.4542830330
  H        -9.1308155445       11.8906014880       26.6376815035
  H        -9.3183208405       10.3863772628       27.4493086170
  H       -10.5442949197       10.8555237592       26.1263658151
  C        -3.7993843270       15.0502665858       38.2291638911
  N        -3.6748049849       16.4076863690       38.2417949440
  O        -3.2768599878       18.1470183322       36.9352605282
  S        -4.4245502893       14.3268515382       39.6783394961
  C        -3.7772181812       17.1989840305       39.4302830667
  H        -4.1231840805       18.2811422168       39.3177674433
  H        -4.4572912590       16.8423883104       40.1108552620
  C        -2.4248437273       17.3687667032       40.0713334478
  H        -2.4797714865       18.1288141464       40.7757762735
  H        -2.1050667735       16.4865947225       40.4672892911
  H        -1.6980214263       17.7445591593       39.3394098345
  H         7.1873446081       10.7152361655        3.3910480512
  C         8.1042685909       10.0683297011        3.4555609677
  H         7.6956000196        9.1243478324        3.6006777284
  C         9.0380640156       10.5887926945        4.5835432507
  C         8.7760910242       10.0057026939        2.1115717725
  C         8.3209913853       10.7725808589        5.9363115549
  H         9.8791030008        9.9152885943        4.8472332458
  H         9.5320530745       11.5288901356        4.3033981050
  H         9.0792174280       10.9667163176        1.7626200467
  H         7.9927772496        9.6532895272        1.4822053877
  H         9.6052007414        9.3314778746        1.8879286696
  C         7.7326576696        9.3962696697        6.4905337659
  H         9.0126977663       11.1988630890        6.5652996647
  H         7.5249557239       11.5129996394        5.7519171366
  C         6.8474459761        9.5489280318        7.6855045792
  H         8.4601138758        8.6133301245        6.7082102353
  H         7.1590290514        8.9185127019        5.7374899389
  C         5.7662982120       10.6109127260        7.7076025607
  H         7.5583207574        9.7918663353        8.4750590028
  H         6.4115002534        8.5772192574        7.9805857260
  C         4.6721641220       10.1292782228        6.7214795531
  H         5.4124813178       10.9595735268        8.6985551728
  H         6.0697707868       11.5338119673        7.2788300831
  C         3.4275583144       11.0552751018        6.4519640866
  H         4.3523773716        9.1256179360        6.9854525108
  H         5.2480192875        9.9821653578        5.7894502666
  C         3.7814455154       12.4227326496        5.8458847500
  C         3.0632561044       11.7310219076        7.7123662194
  C         2.2728062126       10.2994750640        5.8037125051
  C         3.5501218298       13.5476731599        6.6478912130
  C         4.2230896829       12.9206868034        4.5634579124
  C         3.1241858328       13.0835639528        7.8606512140
  C         2.6278843977       11.0654563507        8.9060312218
  H         2.5785031342        9.6580428440        4.9860885139
  H         1.7851320863        9.7330592094        6.5495616967
  C         1.2164198021       11.2150761596        5.2144524527
  S         3.7203207554       15.0892782522        5.9745282560
  C         4.2989740873       14.2910773551        4.4932475105
  H         4.4787660786       12.2333391981        3.7842116018
  C         2.8192290669       13.6294994707        9.0695834665
  H         2.6637284753        9.9817553975        8.9295576549
  C         2.2156308713       11.6355818309       10.0636228584
  H         1.5520625647       11.8182353489        4.3863421878
  H         0.7396600748       11.8582230526        5.9729558939
  C         0.0055907986       10.4334624228        4.7220617255
  C         4.6811995806       15.0012035075        3.1605282916
  C         2.2730434461       12.9604552647       10.1933856901
  H         2.9036780291       14.6977382708        9.0693102314
  C         1.7556900759       11.1532394641       11.2451611663
  H        -0.8298562479       11.0646320860        4.8369916658
  H        -0.2616186686        9.6041379929        5.3848985426
  C         0.1672116608        9.7786147731        3.3611321900
  C         4.6039180121       16.3925616697        2.9774592764
  C         4.9934569894       14.1809973207        1.9727262348
  C         1.8846610498       13.5582342701       11.5151022910
  C         1.5524810334       12.1975552557       12.1337721673
  S         1.3437588987        9.6269266617       11.9066946630
  H        -0.7112299423        9.2864713192        3.2413466237
  H         1.1157618578        9.2140882496        3.2847444644
  C        -0.0369318493       10.6867240673        2.1284504710
  N         4.1945287021       17.2892259095        3.9706085447
  C         4.7963313832       16.9871896128        1.7690333327
  C         5.3219962587       14.8366502357        0.7780662669
  H         5.0471567554       13.1427405441        2.0743066896
  C         0.5600014393       14.4465534965       11.5214461633
  C         3.1273874887       14.1742127155       12.3302062289
  C         1.1548459558       11.7416367682       13.3797376528
  C         0.9813899487       10.4003754363       13.4356282097
  H        -0.9706433628       11.2187046339        2.1011790606
  H         0.7839362726       11.4053053040        2.1533106675
  C         0.1101125900        9.8285164966        0.8506523775
  S         4.2001145785       18.7420875174        3.3258470244
  N         4.6424233537       18.3843297967        1.8353400328
  C         5.2611979634       16.3167715083        0.6219129790
  H         5.5203335341       14.1653041494       -0.0731795210
  H         0.6904035872       15.3354473324       10.9848103331
  H         0.4087596171       14.7000270275       12.5845617011
  C        -0.6721081074       13.7617372549       10.9225763649
  H         3.5989399656       14.8402565418       11.5897604782
  H         2.6989269491       14.7888241143       13.1112080170
  C         4.2129907816       13.2147551982       12.8160171779
  H         0.9403117800       12.4077115615       14.2417969060
  C         0.5619281144        9.6720540538       14.6762391162
  H        -0.6771548863        9.0467198006        0.8196131306
  H         1.1081968319        9.2563447997        0.7906812810
  C        -0.1288234347       10.6570184364       -0.4119899855
  C         5.4639554056       17.0631436107       -0.5819341289
  H        -0.3959896873       13.1992160777       10.0827041979
  H        -0.9881552588       13.0329481122       11.6649748991
  C        -1.8910291282       14.6607115244       10.6359040485
  H         4.7878967706       12.7191222372       12.0154067945
  H         3.7975895474       12.3639031197       13.3610610049
  C         5.1688771930       13.9229808683       13.7912602883
  C         0.5092023366        8.2499951197       14.8614434281
  C         0.2273702377       10.4113660089       15.9773699299
  H         0.4167595533       11.5278826537       -0.4214857142
  H         0.2413761118       10.1450425434       -1.3381485341
  C        -1.5500055138       10.9084432405       -0.8178991449
  H         5.3759584833       18.1400604489       -0.4526521051
  C         5.6759648999       16.5870901459       -1.8635030030
  H        -1.6454459872       15.2647202907        9.7868768781
  H        -2.0903164028       15.3818820321       11.3524234832
  C        -3.1488742205       13.7782304335       10.3266555356
  H         4.6148569224       14.6217919633       14.4170511740
  H         5.5070094172       13.1336186684       14.4514459418
  C         6.3517172761       14.4586358811       13.0616129128
  N         0.6694404221        7.3544457487       13.8069242857
  C         0.0788439049        7.6154074345       15.9823389794
  C        -0.0890978767        9.7309658639       17.1950394878
  H         0.3821536135       11.4579061695       16.0754292229
  H        -1.7065922664       11.6360816384       -1.6062114648
  H        -2.0830359654       11.5069391231       -0.0857406599
  H        -1.9903839537        9.9579392161       -1.0806324196
  S         5.9985138590       14.9481098469       -2.3854899322
  C         5.5877945669       17.5871450835       -2.9615993128
  H        -2.9697321895       12.8757547210        9.7594793025
  H        -3.4758642222       13.4808052558       11.2608533344
  C        -4.1858961633       14.4578930707        9.5905977463
  H         5.9381373127       15.0923328247       12.3166525511
  H         6.9127799058       13.6217925400       12.4978716742
  C         7.3461267480       15.1862257946       13.8509498578
  S         0.5804924611        5.8416011509       14.3380809743
  N        -0.0353890016        6.2259779980       15.7970723713
  C        -0.3157150135        8.2646098931       17.1867314696
  H        -0.2384300933       10.3372987719       17.9858018543
  C         6.1354172970       15.6327073325       -3.9569517964
  N         5.9186813071       16.9329242234       -4.1591130648
  O         5.4794735167       18.7680463591       -2.8017841974
  H        -4.5623563935       15.2424155000       10.2204917050
  H        -3.7280874005       14.9077759693        8.7338755036
  C        -5.2916148958       13.5427096815        8.9982907400
  H         6.8846980413       14.9836539617       14.9014494511
  H         8.2756985131       14.6382255847       13.9240244933
  C         7.6094166446       16.7376924028       13.5738681155
  C        -0.7481114203        7.5052755433       18.3471584310
  S         6.2799637948       14.5995343234       -5.4124506895
  C         5.8462645307       17.6045207476       -5.5530590879
  H        -4.8684648769       13.1664849679        8.0679678626
  H        -5.6137530963       12.6788103892        9.6348616934
  C        -6.5334756135       14.4012260712        8.6331552703
  H         6.9797821968       16.8777120665       12.6395364901
  H         8.6558407912       16.8887087087       13.3288165863
  C         7.0789674653       17.5139855021       14.7449055477
  H        -0.5032698526        6.4263746427       18.1129793062
  C        -1.1022027847        7.8323579419       19.6815415565
  H         6.5124587906       17.0356747609       -6.1909525946
  H         6.1577563120       18.5830629562       -5.4275474177
  C         4.3604519533       17.6705871713       -5.9025149746
  H        -7.0268170550       13.8468015293        7.8674143975
  H        -6.2963138827       15.4426151651        8.2927026149
  C        -7.5227304278       14.3561368246        9.8148874335
  H         6.8791956757       18.4947875663       14.4321611001
  H         6.2189996161       17.1380412130       15.2412260045
  C         8.1110227115       17.5661791446       15.8116350560
  S        -1.3974513245        9.3971767160       20.3719884114
  C        -1.2952233020        6.6940489223       20.6006584716
  H         3.6231245848       17.6116507334       -5.0725576923
  H         4.0130122674       16.9148677328       -6.6789637273
  H         4.1386239093       18.6592335342       -6.3872164403
  H        -7.5622527655       13.3022429318       10.2175779316
  H        -7.3488336873       15.1789323376       10.6089916358
  H        -8.4733990629       14.4680711234        9.3560080453
  H         7.5920895179       17.4291336023       16.7699688000
  H         8.8335804843       16.7648141464       15.8010633664
  H         8.5718444990       18.5628237216       15.7971772440
  C        -1.7884675852        8.4855814283       21.8107824298
  N        -1.6647047005        7.1265860688       21.7803521735
  O        -1.2570002351        5.5322540863       20.2274710006
  S        -2.2455134379        9.1158611268       23.3703873997
  C        -1.9479923047        6.2867044661       22.8766328033
  H        -2.1360632491        5.2509837598       22.5239388369
  H        -2.7946452480        6.5406658816       23.5329610006
  C        -0.7001737000        6.0920033965       23.6498113890
  H        -0.5881026932        6.6259553409       24.6264418099
  H         0.0779229556        6.4362324092       22.9303323917
  H        -0.5508417859        5.0169872647       23.8920284438
