352
i =
  H        -3.2498014341       15.0908374817       15.9682215449
  C        -3.3267846632       14.0783106509       16.1959130906
  H        -4.3161841231       13.6894613207       16.4658341241
  C        -2.3668701909       13.8342770144       17.4066623751
  C        -2.8574077182       13.3177832058       15.0174548701
  C        -3.1113344530       13.6571303853       18.6818302718
  H        -1.6436748339       13.0815214601       17.2095264937
  H        -1.8150854216       14.7543850326       17.5490982702
  H        -3.7401290870       12.9927886394       14.4619658086
  H        -2.3726514821       14.0312952783       14.3943697709
  H        -2.2230868342       12.4835788243       15.2962188062
  C        -2.1945488867       13.2535041341       19.7974348171
  H        -3.8670908918       12.8513922709       18.7098415913
  H        -3.6706726941       14.5212914384       18.8597360002
  C        -2.6831846786       13.2521738729       21.2639930618
  H        -1.7171451758       12.2576683554       19.5121851957
  H        -1.4926566822       14.0376619078       19.8300117373
  C        -1.7338681433       12.6132377759       22.3036398061
  H        -3.5306544669       12.6459819221       21.2643129858
  H        -2.9744488639       14.3216756810       21.5022136157
  C        -0.4409820288       13.4026862187       22.4996171032
  H        -2.2284476101       12.4663910290       23.2307433782
  H        -1.3618794739       11.6596452627       22.0353734427
  C         0.7130691366       12.6802099616       23.1477211433
  H        -0.0588559258       13.8546486212       21.5502074510
  H        -0.6921378643       14.2742681605       23.0470410910
  C         1.0400284025       11.3574166462       22.5076469737
  C         0.2928634581       11.9854114666       24.4106569210
  C         1.8282817803       13.5931877215       23.4838812302
  C         0.9180691573       10.2560343781       23.3715317710
  C         1.4642426539       10.9644975610       21.2371435427
  C         0.4449273513       10.6408099490       24.5711068597
  C        -0.0946363829       12.6392399658       25.5462930908
  H         2.2541544855       14.1975302256       22.6701292785
  H         1.4503755867       14.3585347213       24.2382922200
  C         3.1219579117       12.9294824751       24.0026388510
  S         1.3969880500        8.7171913102       22.7307800643
  C         1.7901934343        9.5891237177       21.2386426183
  H         1.6482520798       11.7088595243       20.4510867635
  C         0.1897131764       10.0545115825       25.7912837634
  H        -0.2139226814       13.7735536768       25.4533528874
  C        -0.3404264267       12.0691749469       26.7693299732
  H         3.4434347039       12.1531734367       23.2661124083
  H         2.9820823985       12.3245693271       24.8879391073
  C         4.3350086370       13.8482452815       24.2116670466
  C         2.2279532557        8.7978300790       20.0565377251
  C        -0.2587739219       10.7297163752       26.9387515188
  H         0.2313430183        9.0351681404       25.8402506456
  C        -0.7367581664       12.5151740691       27.9860496833
  H         5.0826988523       13.2859103257       24.7134000555
  H         4.1357140025       14.6883176877       24.8334299944
  C         5.1419994987       14.3147537501       22.9083277150
  C         2.1247884176        7.3856968290       19.7994188379
  C         2.7398488179        9.6419910049       18.8944281516
  C        -0.6150815445       10.1875958489       28.2586570899
  C        -0.8225255561       11.4886930601       28.8790038167
  S        -1.0648307047       14.1116733194       28.6592861871
  H         5.2996946455       15.4358550826       22.9652105178
  H         4.4746287289       14.1697932023       21.9949906999
  C         6.4781757556       13.6275298040       22.6108517064
  N         1.8456730970        6.3440691458       20.7007642449
  C         2.3605079855        6.8308698096       18.5322661309
  C         2.9693459910        9.1054990605       17.6000835670
  H         2.9728495638       10.6691873206       19.0326500155
  C         0.4474126290        9.2306024169       28.8604982345
  C        -1.8964560294        9.3613630394       28.0194761989
  C        -1.2019395038       11.9749264125       30.1815555567
  C        -1.3615341068       13.3447442797       30.1926450892
  H         7.1270061585       14.3667520128       22.1072136986
  H         6.9073957088       13.4909414969       23.5530186729
  C         6.4408937949       12.3457293931       21.7867385406
  S         1.9525069248        4.8780498636       19.9510160620
  N         2.2531976454        5.3815936126       18.4396022362
  C         2.7838460600        7.6509193956       17.4509040667
  H         3.3591086429        9.7408149560       16.8574750116
  H         0.4953848318        8.4259764952       28.1360699803
  H        -0.0339976684        8.7628420397       29.6927523046
  C         1.7274131189        9.9775147518       29.3092846493
  H        -1.7734637212        8.4403186573       27.4231375547
  H        -2.3424702638        9.0953268897       28.9888709566
  C        -3.0050130042       10.1934789371       27.3780650291
  H        -1.2231329811       11.3012381552       30.9968337261
  C        -1.6701285239       14.1253374205       31.4692607222
  H         5.6670598017       11.6178056265       21.9885052165
  H         7.3133009776       11.8472182258       21.9771802966
  C         6.4285193049       12.6953645723       20.2625791649
  C         3.0959626577        6.9454635998       16.2334506917
  H         2.0928988128       10.4936519702       28.4180741200
  H         1.4989121891       10.7244144342       30.0794604046
  C         2.7338106305        8.9131775399       29.8531128112
  H        -2.8648372383       10.4377457446       26.3449412104
  H        -3.1738253261       11.0952964699       27.9394348651
  C        -4.3517986420        9.4973373763       27.4257903839
  C        -1.6138016099       15.5137512190       31.6110371767
  C        -1.8874103980       13.4925398936       32.7742776696
  H         5.8438960863       11.9968480952       19.6881558171
  H         6.0432039665       13.6826308975       20.0133145212
  C         7.8865131701       12.5177761190       19.7684792603
  H         2.8125827269        5.9449271876       16.2209626154
  C         3.3470497644        7.3355891369       14.9119968993
  H         2.9130554137        8.2832526438       28.9707995141
  H         2.2436052058        8.3845818500       30.6349790246
  C         4.0460242710        9.6206928541       30.3869597890
  H        -4.3545293823        8.6591608655       26.7526831432
  H        -4.6132722853        9.0544993232       28.4392421014
  C        -5.4677270017       10.3588036021       26.9149772706
  N        -1.4236426914       16.4145903184       30.5537947421
  C        -1.9176871581       16.2266540746       32.7187791921
  C        -2.0780815860       14.1477252131       33.9250755111
  H        -1.6828568978       12.4731120448       32.8269919469
  H         8.1452825522       12.8728260333       18.7555646695
  H         8.5508646208       12.9333802232       20.4903693083
  H         8.1447656742       11.4428268745       19.6709364127
  S         3.6599912114        8.7997687143       14.2651167349
  C         3.5153158373        6.1838491054       13.9333612979
  H         4.4071691876       10.5063822021       29.8091717962
  H         3.8063787543       10.0649369240       31.3238538499
  C         5.2777191161        8.6717990734       30.5732957677
  H        -4.9990861571       10.9303152811       26.0565369009
  H        -5.6718086810       11.1238594423       27.6698664096
  C        -6.6461773411        9.5701719290       26.3424171336
  S        -1.1810143701       17.8514718835       31.1825788616
  N        -1.7937339209       17.5987761352       32.5964164514
  C        -2.1581721187       15.6377655265       33.9452988313
  H        -2.1579419522       13.5088616992       34.7796153461
  C         3.9266835086        8.0102240608       12.7259439444
  N         3.8311007247        6.6616774327       12.7473837213
  O         3.2271726508        4.9819305019       14.1560945829
  H         6.1286664020        9.2532373709       30.7864413071
  H         5.3747867924        8.0919370085       29.6565790949
  C         5.0502007678        7.6946863658       31.7030387679
  H        -6.3358344387        8.9163023680       25.4891762626
  H        -7.1182546964        8.9004173261       27.0529507612
  C        -7.7032367477       10.4720034362       25.7262185608
  C        -2.5792571801       16.4447998621       35.0177447059
  S         4.2727645301        8.8433537175       11.2295742156
  C         3.8790432877        5.9100864320       11.5178218837
  H         5.7857120579        7.9194063639       32.5181149872
  H         4.0574608482        7.9616786684       32.0605882164
  C         5.0314694278        6.2447905905       31.2844544952
  H        -7.2877130318       10.9624538605       24.7792334552
  H        -7.9999716546       11.2613546219       26.4446831074
  C        -8.8697876284        9.6358547981       25.3462844020
  H        -2.6228161888       17.4810172812       34.8390479323
  C        -2.9316992874       15.9953303320       36.2853998168
  H         4.7106134344        6.1357481033       10.8543095568
  H         4.0672771689        4.8570009352       11.8241592110
  C         2.5496833372        6.1884827212       10.7684383117
  H         4.3716423922        6.0413578603       30.4978852633
  H         4.5705615445        5.8111732131       32.1122397069
  C         6.3849232384        5.6201856189       30.9430159842
  H        -9.0472244647        9.8327802547       24.3354061072
  H        -8.5580589185        8.5606059327       25.4694301245
  C       -10.1402046042        9.6869779437       26.1541133873
  S        -3.4513737457       14.4689014764       36.8369244871
  C        -2.9877037447       17.0661040679       37.2775143838
  H         1.8674902395        6.7333889086       11.4250993660
  H         2.6785495864        6.6862235803        9.8717831001
  H         2.2210472952        5.2587025283       10.3806203668
  H         7.1461672588        6.1212578593       31.5396161246
  H         6.6537428071        5.5743866599       29.9179857387
  H         6.4169956636        4.5966492240       31.2429952732
  H       -10.0746773793        9.2671982161       27.1779640416
  H       -11.1061821848        9.3088512252       25.7525182890
  H       -10.2706116359       10.7591339869       26.3056193241
  C        -3.6621325025       15.2308498162       38.4435435259
  N        -3.5576173428       16.5676817716       38.4176625048
  O        -2.7575640174       18.2238588492       37.0259844378
  S        -4.3571779486       14.5274083099       39.9079354434
  C        -3.9117728404       17.5331072024       39.4552455193
  H        -4.4815527398       18.3737326934       39.0693220445
  H        -4.6998788239       17.1009391567       40.0411605745
  C        -2.6343887453       17.8797623464       40.2973042974
  H        -2.5349531949       17.1203709762       41.1547057618
  H        -1.7781895929       17.8527598065       39.5964374853
  H        -2.5922841512       18.8748008326       40.6632370981
  H         7.0003684942       11.1776952329        3.9596482453
  C         7.6140218659       10.2504037486        3.8256249891
  H         6.8448630349        9.5259825493        3.7710417487
  C         8.5368567979        9.9955456376        5.0694461404
  C         8.4031856433       10.2788407162        2.4822346363
  C         7.8032755152       10.1779632869        6.3451037714
  H         8.9815568284        9.0263969072        5.0224186446
  H         9.3166308857       10.7850324758        4.9490047339
  H         9.0780710297       11.0790616476        2.4840133264
  H         7.7487834324       10.5473052404        1.6427569179
  H         8.8592430322        9.3641386266        2.1241592503
  C         7.0616417207        8.9854708146        6.7797321615
  H         8.4169217182       10.5165843165        7.1741990679
  H         7.1309236191       11.0111612564        6.2942575059
  C         6.3145845577        9.3323887666        8.0310867812
  H         7.7986022923        8.2340961363        6.9910072031
  H         6.4642589227        8.6111582690        5.9427561565
  C         5.0778373988       10.1994173098        7.9086975317
  H         6.8589949290        9.6827117450        8.8841362815
  H         5.9734891383        8.4029953473        8.4293184963
  C         3.8051807132        9.4556184014        7.2648509696
  H         4.8009299779       10.4816595717        8.9392202912
  H         5.2492339801       11.1522558718        7.3988860664
  C         2.6182692148       10.3426424694        6.9527076438
  H         3.4760253041        8.6391141528        7.8651389194
  H         4.1378561670        9.0097775973        6.3561130072
  C         3.0340468088       11.6792828793        6.3026809762
  C         2.1356580155       11.0718236491        8.1956178589
  C         1.6417131428        9.5630048761        6.0536760929
  C         2.7023608964       12.7589377361        7.1147535218
  C         3.5645905802       12.1545052615        5.0493213277
  C         2.1299747695       12.3756370846        8.3387231938
  C         1.7656785852       10.4275403925        9.3871964688
  H         2.1086834323        9.1007172011        5.1865445097
  H         1.1948517832        8.8208841948        6.7514538911
  C         0.5785022176       10.5005477993        5.4945205105
  S         3.0314201477       14.3200595703        6.3937149841
  C         3.5965940603       13.5151167293        4.9584054207
  H         3.8559182283       11.4420004184        4.3128006054
  C         1.8070408182       12.9601683753        9.5047991802
  H         1.8120561241        9.3853507880        9.1754168845
  C         1.3669700363       11.0050695325       10.5595594716
  H         1.0363210979       11.1225109184        4.7786310923
  H         0.1058807756       11.1986562299        6.1878239241
  C        -0.4742720631        9.6646895187        4.8411779496
  C         4.1885979691       14.2903414241        3.8113532716
  C         1.3859859435       12.3787887264       10.6505428506
  H         1.9430081053       13.9883517222        9.6111711528
  C         0.9628003904       10.6402255642       11.8338837082
  H        -1.0859744932        9.1252680083        5.5486723613
  H         0.0142146422        8.8880631798        4.3464490428
  C        -1.3075563123       10.4412377251        3.8003693752
  C         4.0708542740       15.6828018930        3.5935481980
  C         4.5072417709       13.4426052057        2.5856586988
  C         1.0350407076       13.0261430293       11.9234229404
  C         0.7595029707       11.7438317427       12.7183212885
  S         0.7000896279        9.1153272431       12.5763540889
  H        -0.6762473522       11.2953454353        3.4238827958
  H        -2.0827930830       10.9162280823        4.3634855184
  C        -1.8966324014        9.7195748323        2.5765357055
  N         3.7553468365       16.5332864335        4.6054396805
  C         4.3173512275       16.2620049352        2.3929596416
  C         4.7978534175       14.0662558267        1.3581315625
  H         4.5901071000       12.4119847890        2.6472256730
  C        -0.2564282050       13.8943578285       11.8745534986
  C         2.1807711469       13.8406419488       12.5825409468
  C         0.3496718919       11.3583302993       14.0179057738
  C         0.2840246836        9.9700091245       14.0700781432
  H        -2.5218605526        9.0039700150        3.0337908526
  H        -2.6364336419       10.3588099887        2.1586199988
  C        -0.8894812491        9.1890975986        1.4820424289
  S         3.7197141666       18.0171646221        3.9873164898
  N         4.2880611560       17.6991298999        2.4774312413
  C         4.6228177487       15.5471498488        1.2352241191
  H         5.0985538415       13.4897187470        0.4837685639
  H        -0.0583293295       14.8266936916       11.3006867244
  H        -0.6492624890       14.0794422277       12.8966341313
  C        -1.3679595984       13.3745722129       11.0623190352
  H         2.6417194689       14.3325317227       11.8166291084
  H         1.7427139504       14.5923586357       13.2927589489
  C         3.3144914706       12.9360807726       13.0948956002
  H         0.1168041535       12.1204348541       14.7592584703
  C        -0.0852658542        9.2368979161       15.2931545492
  H        -1.2169171330        8.2500803799        0.9698616024
  H        -0.0008456313        8.7340503052        1.9535534219
  C        -0.5124203036       10.2064738754        0.4156666269
  C         4.7652307230       16.2765898202        0.0332753028
  H        -1.0302492889       13.2334669987       10.0258617617
  H        -1.6109526362       12.4080310988       11.4837407587
  C        -2.6394353941       14.2384791982       10.9947504365
  H         3.4280934081       12.1621480579       12.3056796209
  H         2.9531371522       12.3539933405       13.9267203571
  C         4.5747024219       13.7010871112       13.6473065406
  C        -0.2477324675        7.8701759122       15.4490574382
  C        -0.1680163961        9.9966433550       16.5294743410
  H        -0.6183098269       11.2152541009        0.8008136344
  H         0.5140622867       10.1000048093       -0.0318332487
  C        -1.6006955577       10.1317616903       -0.6231997779
  H         4.5181897962       17.3713092927        0.0844267690
  C         5.0539307572       15.9942111838       -1.2443350204
  H        -2.5592220698       14.9933343818       10.1758873773
  H        -2.7732118225       14.8787476355       11.8544183315
  C        -3.8596670425       13.4040277492       10.7705119699
  H         5.0095929769       14.3448253881       12.8275726869
  H         4.1888859931       14.5452943539       14.2676147750
  C         5.6569996936       12.8314702702       14.2602035481
  N        -0.2570194178        6.9079261479       14.4076003280
  C        -0.5281620989        7.2246270871       16.6380617254
  C        -0.4578312818        9.4234621418       17.7578009571
  H        -0.0659238042       11.0523525960       16.5677811481
  H        -1.4902175947       10.9387903258       -1.3948115567
  H        -2.5481131824       10.3468119848       -0.1925680725
  H        -1.5775147115        9.1929065899       -1.1210191233
  S         5.4583043762       14.4647856707       -1.8374406884
  C         5.0345972954       17.0911533501       -2.2759498724
  H        -3.6559832905       12.5767620900       10.0880407706
  H        -4.0123564045       13.0088774735       11.7913806997
  C        -4.9974886702       14.2114220352       10.2311838082
  H         5.6624876854       11.8140709938       13.8045073718
  H         5.3355984964       12.7065385196       15.2772262854
  C         6.9816303251       13.4423361166       14.1691943924
  S        -0.3861158328        5.4112433484       15.0005812351
  N        -0.6950553580        5.8280472449       16.4828054331
  C        -0.7219498176        7.9740844460       17.8437258286
  H        -0.6812732021       10.0232102595       18.6037733175
  C         5.6525806876       15.2126802259       -3.3736668763
  N         5.4986633504       16.5289960606       -3.3892022572
  O         4.8159509314       18.2912297179       -2.0821441975
  H        -5.2648114647       14.8976737258       11.0457204087
  H        -4.6575392707       14.8711407507        9.3437180987
  C        -5.9894763936       13.2215143492        9.6454268778
  H         7.8070173526       12.7191080983       14.3380885144
  H         7.3284988339       13.9525088704       13.2149791456
  C         7.2436114026       14.4831034963       15.2528270927
  C        -1.0459180720        7.2418756674       19.0101535773
  S         6.2055119983       14.4585315158       -4.8138073440
  C         5.6483520532       17.3985240894       -4.5531060374
  H        -5.5900979905       12.5821830422        8.8811260932
  H        -6.1853563819       12.7451101248       10.5269817400
  C        -7.2320245049       14.0211678330        9.1148859743
  H         7.9111528529       14.0481159298       15.9668648370
  H         6.3524381385       14.7526715247       15.8460022818
  C         8.0462925619       15.7273739684       14.7851551386
  H        -0.8236737525        6.1790492452       18.9190124643
  C        -1.3659070978        7.5970065792       20.2972394620
  H         6.4195628353       17.1129497191       -5.2639717881
  H         6.0357477055       18.4483363631       -4.2533308061
  C         4.3276165838       17.5767057491       -5.3590300851
  H        -7.6307794024       13.2468543602        8.3277051279
  H        -6.9378142902       14.9228881378        8.5744146081
  C        -8.2438299810       14.1831071934       10.2521954598
  H         8.6437649159       16.0535831693       15.5983269504
  H         8.6740787187       15.5017974887       13.9329736031
  C         7.1378912139       16.8399483516       14.3230377515
  S        -1.7524735627        9.1582163113       20.6795136297
  C        -1.4856407904        6.5562841250       21.3238901371
  H         3.7022730832       18.2394082629       -4.7230894816
  H         3.8861387538       16.6532696284       -5.5927022020
  H         4.5655577972       18.0499566056       -6.3363603468
  H        -8.3257551077       13.2918500862       10.8397279733
  H        -8.0437460560       14.9919923049       10.9817802162
  H        -9.2394533668       14.4426821506        9.9495007447
  H         6.1718609517       16.5083669538       13.9615226720
  H         6.9339800382       17.6387114768       15.0572496632
  H         7.6781809378       17.2837951926       13.4976154802
  C        -2.1426118120        8.4769550048       22.2649981863
  N        -1.9610016467        7.1510796465       22.4156898897
  O        -1.3318397180        5.3400946068       21.1778733245
  S        -2.9126498826        9.4539712004       23.5710086051
  C        -2.1400523195        6.3805018606       23.7014169995
  H        -2.4105444591        5.3475917177       23.6260238196
  H        -2.9313436872        6.8536276409       24.3056458941
  C        -0.7199068357        6.2673414608       24.4910381499
  H         0.2176816602        6.3151633582       23.8802013217
  H        -0.6818722135        5.2625735126       24.9517549372
  H        -0.6894349399        7.0867635566       25.2886806511
