352
i =
  H        -3.1050884562       14.7467612326       16.7299807503
  C        -2.8565260195       13.7146736322       16.5965010177
  H        -3.6272071330       13.0584018858       17.0021197893
  C        -1.5436722850       13.6127005898       17.4582430315
  C        -2.5818388639       13.3489831562       15.0830992026
  C        -1.7057530639       14.0227045784       18.9606170668
  H        -1.2240725254       12.5714051530       17.4247257393
  H        -0.7439895879       14.2058776324       17.1377110485
  H        -2.5675732810       12.3375162507       14.7718455734
  H        -3.4428940984       13.8614866424       14.5805076085
  H        -1.7614842065       13.8551753465       14.6788560309
  C        -2.2351490823       12.8846123833       19.8284017947
  H        -2.4945852610       14.7799095633       19.0790533474
  H        -0.8939146730       14.5467219242       19.3629104809
  C        -2.2833500215       13.2713647786       21.3171332182
  H        -3.2842021317       12.6280964354       19.5551206249
  H        -1.6242366035       11.9999036119       19.7563420895
  C        -1.1827922497       12.6411625666       22.3279265707
  H        -3.2937747763       12.9291358352       21.6443110356
  H        -2.1776031307       14.3203597201       21.5235542259
  C        -0.0444423137       13.5886153800       22.6108428705
  H        -1.5799009345       12.4829958475       23.3178735641
  H        -0.7807319842       11.7554912896       21.7529597509
  C         1.1014166271       13.0336125482       23.4160711148
  H         0.4041352396       13.9566983800       21.6606826922
  H        -0.4419290794       14.5002459247       23.0074015337
  C         1.4957649625       11.7306616464       22.7602165305
  C         0.8083455879       12.4356890706       24.7302304782
  C         2.3277356517       13.9537502924       23.4535223475
  C         1.5503889867       10.6618925397       23.6390934113
  C         1.9891275990       11.3373701055       21.5295257141
  C         1.0159026121       11.0672838693       24.8629250666
  C         0.3473279424       13.1493828059       25.7976908784
  H         2.5099559886       14.2017726680       22.3496217675
  H         2.0528987234       14.8814357190       23.9888992006
  C         3.5325966478       13.3313467965       24.1411644435
  S         2.0480679292        9.1661984074       22.9729162025
  C         2.3199236806       10.0058785593       21.4973367587
  H         2.0520846624       12.0920367576       20.8513225479
  C         0.6812422386       10.4899575271       26.0447085509
  H         0.3970689194       14.2058451473       25.7504196227
  C         0.0011568102       12.5039213019       26.9783877873
  H         3.9011075002       12.5475439989       23.4813942434
  H         3.2570103358       12.8095305202       25.0304082218
  C         4.7560441270       14.2579059915       24.4214254630
  C         2.7562677666        9.2545150992       20.2567094504
  C         0.0622388299       11.1527381170       27.1102853354
  H         0.8495110136        9.4476682653       26.1934194831
  C        -0.4600608187       12.9242943613       28.1960590084
  H         5.4051519268       13.7798871618       25.1633145486
  H         4.3319344829       15.0373986851       25.0214706117
  C         5.5149607009       14.7224372812       23.1687396992
  C         2.6028626813        7.8404621061       20.0381990662
  C         3.1632849903       10.0528632540       19.1249392022
  C        -0.3812060626       10.4611304691       28.3500035505
  C        -0.6344039799       11.8173996465       28.9978181299
  S        -0.6761966137       14.4587129098       28.9406405303
  H         5.9757852970       15.6019474089       23.5531108156
  H         4.9256234213       14.9599688932       22.2705753293
  C         6.7613192793       13.7499451010       22.7525250579
  N         1.9636379669        6.9667575363       20.9754706227
  C         2.9469188700        7.2806758131       18.8380653087
  C         3.3699174541        9.4459680749       17.8644871586
  H         3.1642813189       11.1459957122       19.1644826030
  C         0.6762443490        9.6346871844       29.0684130414
  C        -1.6670608391        9.6005894843       28.0811465683
  C        -1.1926089490       12.2268725255       30.2339117992
  C        -1.2438550929       13.6116278244       30.3722914423
  H         7.6482686604       14.2537346121       22.3578286417
  H         7.0387059182       13.1554079135       23.6232252060
  C         6.4170613682       12.8266246295       21.6133608728
  S         1.9650773512        5.4994781082       20.2990263752
  N         2.7038373637        5.9521170406       18.8888018731
  C         3.2530810353        7.9354874562       17.6522956460
  H         3.7355267693       10.1546840674       17.0622720182
  H         0.9731923248        8.6951476899       28.6534961983
  H         0.3153360244        9.0369155803       29.8936870854
  C         1.8454411582       10.5226119963       29.5732955356
  H        -1.3339869281        8.7647399478       27.3592637809
  H        -2.0769539279        9.2529170083       29.0040144255
  C        -2.7715789991       10.3785458633       27.4588685351
  H        -1.3763344273       11.4498059422       30.9889607230
  C        -1.6250051535       14.3758610865       31.5919473853
  H         5.3924866219       12.4177041529       21.7604024949
  H         7.1058618611       12.0002898274       21.5618536727
  C         6.3430766150       13.4774278882       20.2174088282
  C         3.4228196357        7.1447459499       16.4463814118
  H         2.0959680468       11.2907144709       28.8319204685
  H         1.4130572832       10.9530307896       30.4778978268
  C         3.0326289644        9.6492114570       30.0184911491
  H        -2.5155017011       10.8745591571       26.5413275579
  H        -3.0247774258       11.1797975711       28.2035521975
  C        -4.1803917537        9.6544136038       27.3469017582
  C        -1.6365853916       15.7927925544       31.6826719825
  C        -1.8578240778       13.6228259822       32.8404594267
  H         5.6956459396       12.8887538904       19.6325773473
  H         5.8854088700       14.4336417614       20.3912240816
  C         7.6604081402       13.7903138993       19.4769104081
  H         3.1962204191        6.0606548414       16.4473171296
  C         3.7170296604        7.4896977117       15.1736297562
  H         3.4419192825        9.0817569054       29.2634335593
  H         2.7947113080        8.9521824744       30.8246051926
  C         4.1370149788       10.4920708364       30.5946173712
  H        -4.0211445746        8.7725622606       26.6998338719
  H        -4.6090100981        9.4200930862       28.3351659621
  C        -5.2232233463       10.6301200835       26.7466694531
  N        -1.3427848384       16.7014261822       30.6467281651
  C        -1.9003807348       16.4184106189       32.9235864758
  C        -1.9707778962       14.2817141333       34.0787066926
  H        -1.6604675262       12.5518993736       32.9266128055
  H         8.1068696802       12.8680381857       19.1366166454
  H         7.4650882768       14.3958861578       18.5931803082
  H         8.4139060164       14.1930031561       20.1219413290
  S         3.9948502005        9.1213127718       14.6968128967
  C         3.7608403693        6.4884651391       14.1092620394
  H         4.1559742711       11.4328338884       30.1200221964
  H         4.0212155738       10.7091976311       31.6510028163
  C         5.4725584794        9.8175381460       30.5226319578
  H        -4.8143029806       11.4210868730       26.0743679311
  H        -5.5346728542       11.2175623692       27.6164362361
  C        -6.2256009291        9.8818186511       25.9890705603
  S        -1.4959740300       18.2042738154       31.2480131173
  N        -1.7410743907       17.7709657153       32.7946368427
  C        -2.1412946438       15.7686177010       34.1032150648
  H        -2.0737338692       13.6743347462       34.9596107419
  C         4.1659562741        8.5690644267       13.0809865201
  N         3.9977978263        7.2555669129       12.9739960205
  O         3.4267692158        5.2976032822       14.2353037731
  H         6.1015260868       10.5414777398       31.0548458284
  H         5.9138949463        9.7663432613       29.6075944368
  C         5.5228379251        8.5131867263       31.3090495479
  H        -5.7453174415        9.3208679119       25.2409297466
  H        -6.7396297614        9.2976638591       26.7859118606
  C        -7.3534581609       10.6873025246       25.2485566030
  C        -2.4767723252       16.5204131085       35.2290986769
  S         4.4177703608        9.5789805086       11.6648795312
  C         3.9610102424        6.5481055499       11.6859714886
  H         6.4192749933        8.4717074783       31.9777810051
  H         4.8468680307        8.5859896321       32.1149684449
  C         5.4629363178        7.2115608365       30.4456520959
  H        -6.9957741214       11.0368836453       24.2739255080
  H        -7.4978010827       11.6172359128       25.8792122021
  C        -8.6288041905        9.9707869929       24.9871452480
  H        -2.3171060905       17.5758214179       35.0978402715
  C        -2.9238696932       16.2103741642       36.4950029940
  H         4.6433164256        7.0067388565       11.0581331739
  H         4.2781592424        5.5113364850       11.7373761545
  C         2.5101009353        6.7493253633       11.0714356764
  H         4.6138517487        7.1119041925       29.8694616346
  H         5.5118156091        6.4704392662       31.2258740693
  C         6.6189745465        7.0375390939       29.4351219205
  H        -9.2553334809       10.4956994137       24.2073166460
  H        -8.3221505046        8.9733995558       24.6939103534
  C        -9.4649774428        9.7900141703       26.2187804951
  S        -3.3715204855       14.6456659749       37.1306451799
  C        -2.9393130590       17.3410884735       37.4990397495
  H         2.3807905542        5.8980175877       10.3638742501
  H         1.6757864619        6.6940988063       11.8528927282
  H         2.4147608730        7.5892366273       10.4026436261
  H         7.5202465846        7.2383475038       29.8730341724
  H         6.3904094881        7.7208815942       28.5594715069
  H         6.7085487295        6.0483165085       29.1720409159
  H        -9.1517644492        8.8702438529       26.6837289067
  H       -10.4990438502        9.6058374849       25.9506243217
  H        -9.3322543391       10.6238121629       26.8929959421
  C        -3.5819702708       15.4699700657       38.6706718393
  N        -3.4060869983       16.8060442684       38.6940901127
  O        -2.5476472509       18.4910278229       37.2733590330
  S        -4.0848118701       14.6310511440       40.1521734282
  C        -3.4404230809       17.6428000140       39.8859499200
  H        -3.5521857467       18.6101669675       39.5237930956
  H        -4.3081684011       17.3598229199       40.4642053029
  C        -2.1426971551       17.4402026858       40.6360385318
  H        -2.2168020705       16.7140797684       41.4529939891
  H        -1.2828855667       17.3446017880       40.0207936233
  H        -1.9272300731       18.3131785892       41.2568550870
  H         7.1538308214       10.7133701260        3.9222157771
  C         7.9768199833       10.0151987355        4.1085105914
  H         7.7661959763        8.9473380671        4.1141562504
  C         8.7368533470       10.2746087942        5.4000233255
  C         8.9103237935       10.1776489335        2.8725137268
  C         7.8974615763       10.6267984324        6.6198588628
  H         9.5263736209        9.5600522632        5.6431107939
  H         9.4263946516       11.0999355441        5.0877674033
  H         9.6001684173       11.0747009639        3.0476969777
  H         8.4292669486       10.3894403021        1.8923365607
  H         9.5469661636        9.2818119499        2.8479794187
  C         7.3889581949        9.3752812358        7.2963016493
  H         8.4793464660       11.2257180408        7.2277530091
  H         6.9688440306       11.1743150277        6.2900153167
  C         6.5079031878        9.6373051834        8.4677745302
  H         8.1678151345        8.6707708888        7.6001354037
  H         6.9233082619        8.6381494039        6.6509735683
  C         5.2546231484       10.4419717343        8.2920522773
  H         7.0974924591       10.3336675902        9.1181004064
  H         6.3605844919        8.6740155561        8.9776929375
  C         4.1520026073        9.6701088637        7.4884824282
  H         4.8722311576       10.6657906452        9.3064290892
  H         5.5270443022       11.3764550567        7.9066169550
  C         2.8826822603       10.5323196968        7.3070828514
  H         3.8344101971        8.6945784610        7.8386317234
  H         4.5928342030        9.4686570435        6.5373107356
  C         3.1667651238       11.8288714381        6.5970950317
  C         2.5293246946       11.2544717717        8.5316966901
  C         1.7004950946        9.7837266100        6.5610129371
  C         3.0145155500       12.9669020885        7.3864310824
  C         3.6768338045       12.1990273733        5.3011256745
  C         2.5070683915       12.6350949764        8.6316402242
  C         2.0214860583       10.6546085727        9.6638693948
  H         2.0242445807        9.2220341162        5.6522340154
  H         1.3074937432        9.1276537735        7.3289861036
  C         0.4958874936       10.7059974817        6.1819113132
  S         3.3664187468       14.4430200387        6.6297227822
  C         3.8381861553       13.5808129640        5.2280398573
  H         3.7482130707       11.4103011934        4.5210900358
  C         2.1416464647       13.3033021572        9.7338629818
  H         1.9804718506        9.5967956015        9.7121048936
  C         1.6731869059       11.3568860858       10.7981087426
  H         0.8722057353       11.6872708674        5.7642688877
  H        -0.0385152597       11.0173483188        7.1081106523
  C        -0.4596430395        9.9973731872        5.1820403241
  C         4.2154045173       14.2140011373        3.9273903756
  C         1.7099027097       12.7127499949       10.8787085285
  H         2.2775188330       14.3531803910        9.7222004970
  C         1.1611288469       10.9754526790       12.0265735668
  H        -1.3686622369       10.5690671080        5.3208024068
  H        -0.8798583443        9.0710658332        5.4351642851
  C         0.0143014853        9.9849688922        3.7667014840
  C         4.2843069875       15.5596679798        3.6860832947
  C         4.7628050666       13.4083960236        2.8215204912
  C         1.2530488166       13.3922081869       12.1176444757
  C         0.8933904024       12.0681529624       12.8227313320
  S         0.7530656253        9.4728235061       12.7733874838
  H         0.5245098180        8.9781056272        3.6404834528
  H         0.8090536851       10.6989267638        3.6560734692
  C        -1.1564156741       10.0441651579        2.7234939028
  N         4.0459252842       16.5325880889        4.6865100056
  C         4.6348937802       16.1287821524        2.4769495062
  C         5.1493872055       13.9471258672        1.5925595685
  H         5.0305146826       12.3608071252        2.9357438862
  C         0.0312749846       14.3081044098       11.8912868738
  C         2.3990862246       14.1063142168       12.8068501729
  C         0.5708838096       11.6217256761       14.1758395516
  C         0.4801917806       10.2399566271       14.2644771777
  H        -1.9081197419        9.4170161644        3.2736387954
  H        -1.5810201535       11.0196264703        2.7171200281
  C        -0.8665447100        9.4548271676        1.3193758938
  S         4.2402253875       18.0281209788        4.0333600219
  N         4.5299529194       17.5230844196        2.4729578046
  C         4.9799187379       15.3651874051        1.3639907610
  H         5.5894294584       13.3436396075        0.8274277806
  H         0.2463054694       15.0433873240       11.1606436603
  H        -0.1812274387       14.9050638631       12.8002284415
  C        -1.1879487068       13.5399982299       11.3601650124
  H         2.7015442736       14.8691739930       12.0335325790
  H         1.9792064163       14.6064080741       13.6677746119
  C         3.5377102085       13.1950053326       13.2119828962
  H         0.5041582883       12.3012863657       14.9713118395
  C         0.1724459631        9.4188820636       15.5608411196
  H        -0.8933841356        8.3798459394        1.4856352016
  H         0.1039821721        9.7107421708        1.0756492400
  C        -2.0409456894        9.7210939549        0.2961486400
  C         5.1622691322       16.0812016793        0.1180563569
  H        -0.9553118186       13.1714838946       10.3756357870
  H        -1.5483626855       12.7213134594       12.0396745105
  C        -2.3721802017       14.5296937324       11.2199847383
  H         3.9832658962       12.6947026105       12.3614509102
  H         3.1749776833       12.3718281397       13.8769143833
  C         4.6685015339       14.0123658251       13.8811797019
  C         0.1286983407        8.0059250596       15.6951216613
  C        -0.0609384963       10.1523358965       16.8002846668
  H        -2.3311247559        8.7787079769       -0.1750573178
  H        -2.9713198891       10.0999368836        0.8566940701
  C        -1.6579135306       10.6688306311       -0.8964575042
  H         4.9614750877       17.1576996827        0.1726890642
  C         5.6009694660       15.5996521319       -1.1100699354
  H        -1.9653990960       15.4377552496       10.8678702470
  H        -2.8127051412       14.6736243611       12.1886072891
  C        -3.4077009441       14.0740976525       10.2531423841
  H         4.7984533556       14.8976850007       13.3222862451
  H         4.2752738767       14.2599862660       14.8396470802
  C         5.9177670436       13.1596010280       14.1348854234
  N         0.3766525381        7.1258165469       14.6801594742
  C        -0.2472456237        7.3658129925       16.8820536819
  C        -0.3739375996        9.5501705400       18.0015453733
  H        -0.0794108289       11.1752285903       16.6749715261
  H        -0.9604747652       11.3831172965       -0.3879484480
  H        -2.5452256117       11.0547493109       -1.3546506059
  H        -1.0721612048       10.0339853043       -1.6017450186
  S         5.7978192831       13.9037325376       -1.5496251670
  C         5.6611865362       16.5225104816       -2.2653457463
  H        -3.5505666245       14.9679902244        9.7444339939
  H        -3.0263702982       13.3891651097        9.4904608562
  C        -4.6561713485       13.4750030211       10.8942144270
  H         6.3585170978       12.6550215101       13.2675780627
  H         5.6875708961       12.2784420813       14.7337349885
  C         7.0509305633       13.9170667812       14.8142138384
  S         0.1920554164        5.5748504485       15.2701629672
  N        -0.2254247045        5.9570121487       16.8011485870
  C        -0.4801044133        8.0729176659       18.0974438534
  H        -0.6147076853       10.0405802814       18.8888975132
  C         6.0175632723       14.4796372541       -3.2020524301
  N         5.9802903867       15.8107864000       -3.4007802814
  O         5.3084950359       17.7004136949       -2.2138377167
  H        -4.3670651277       12.6434107760       11.5826011998
  H        -5.2212697128       14.1197263126       11.4948220775
  C        -5.5560528980       12.7484911493        9.8330888572
  H         6.7112308984       14.2969711091       15.7736707684
  H         7.8150935629       13.1773164988       15.0653621335
  C         7.6753894730       15.1717204755       14.1283902495
  C        -0.9149703939        7.3253219318       19.2406059215
  S         6.5387856957       13.3767592470       -4.4814970251
  C         5.9212967122       16.4129266357       -4.7308104709
  H        -4.8392553855       12.3634926315        9.1424072021
  H        -6.1326026131       11.9993924851       10.3670493132
  C        -6.6000051880       13.6581221205        9.2024212295
  H         7.0868990317       15.3979284203       13.2282994399
  H         8.6392571814       15.0285853484       13.7978383501
  C         7.4567654830       16.5180007347       14.9230254098
  H        -0.5590928361        6.2661340338       19.2110038411
  C        -1.5131924604        7.7551739877       20.3768347167
  H         6.3088725582       15.8028822058       -5.5725699206
  H         6.5246474932       17.4139024282       -4.7609056751
  C         4.4521295938       16.5736833068       -5.1994758740
  H        -6.8457612003       13.1834958188        8.3209156914
  H        -6.1596871760       14.6498971759        8.9341999879
  C        -7.8263212868       13.8528362379       10.0820063024
  H         7.6638755609       17.3961675672       14.2816124620
  H         6.4449821195       16.5273473661       15.1379079331
  C         8.3144489914       16.7057028561       16.1897709672
  S        -2.0994408099        9.2508103263       20.7662226374
  C        -1.6640563642        6.7360717660       21.5078825626
  H         4.3370489840       16.4783471489       -6.2472043703
  H         4.0266120526       17.6043863761       -5.0667904265
  H         3.7111777834       15.8766947845       -4.9154295134
  H        -7.5425507371       14.5732285112       10.8032992162
  H        -8.8218160988       14.2441543864        9.6945628821
  H        -8.0365623894       13.0360187012       10.7335966668
  H         8.1458510605       15.8392603329       16.8876627074
  H         9.3602606206       16.9114826973       15.9683126850
  H         7.9694782330       17.5911240028       16.6993205093
  C        -2.5274302113        8.5818332262       22.4163703398
  N        -2.2425278312        7.2860712656       22.6188469686
  O        -1.2009203737        5.6193318786       21.4685298782
  S        -3.0317399031        9.5022057149       23.8755371825
  C        -2.3901575521        6.4831074333       23.8529388572
  H        -2.7130092512        5.4255229259       23.7000033314
  H        -3.0678058888        6.9110928884       24.5339368893
  C        -1.0265255824        6.4749754176       24.6144588036
  H        -0.5610082708        7.4220238372       24.8474720739
  H        -0.3447597703        5.8982102077       24.0432589985
  H        -1.2226031422        5.9975101069       25.5562214003
