352
i =
  H        -3.3075105251       14.8841261381       16.1934607667
  C        -3.2173215642       13.7950699665       16.2789936425
  H        -4.1021361120       13.3224821487       16.6070594764
  C        -2.1208537652       13.4526472582       17.2555103597
  C        -2.6593558039       13.2898607295       14.9220137899
  C        -2.6465257843       13.5466083232       18.7063908841
  H        -1.8533795158       12.4046856330       17.0658443760
  H        -1.2631797347       14.1398822639       17.1719681208
  H        -1.6053789712       13.5820625692       14.8385959491
  H        -2.6621894832       12.2232418258       14.8950439257
  H        -3.2341518296       13.6994578065       14.0908161298
  C        -1.7283197192       12.9558333867       19.8215713822
  H        -3.5869070228       12.9867647580       18.7219997750
  H        -2.8608986751       14.6192830025       18.8153237098
  C        -2.2546775855       13.0700698256       21.2624154553
  H        -1.5772068213       11.8986370245       19.6280209035
  H        -0.7588035156       13.4057709208       19.8540266261
  C        -1.2686549540       12.3699097977       22.1913719403
  H        -3.2500470575       12.6079018108       21.3769942410
  H        -2.3774416713       14.1742615880       21.5212632407
  C        -0.2698324020       13.3615821420       22.6772111751
  H        -1.8165167905       11.8750659678       23.0319633221
  H        -0.8529230289       11.5220753645       21.6305248898
  C         1.0286667336       12.7921583493       23.2607823205
  H        -0.0606253809       14.0543864170       21.8953007690
  H        -0.8589731317       13.9933212144       23.3793059103
  C         1.4452320486       11.4340239748       22.6024151685
  C         0.6709107231       12.0606272478       24.5778408540
  C         2.1686349334       13.8929466121       23.2255441782
  C         1.2750184304       10.3369624954       23.4113212091
  C         2.0645497684       11.0097442353       21.3812589699
  C         0.8656630990       10.7317854694       24.5999375137
  C         0.2550898565       12.6808125024       25.7967972070
  H         2.1089430516       14.4281248939       22.2923201542
  H         1.8467509753       14.6899605782       23.9523020100
  C         3.6183799760       13.4046587424       23.6163002982
  S         1.6796854150        8.8316530646       22.6958845929
  C         2.1880584172        9.6411927427       21.2893162623
  H         2.2446026254       11.7737500378       20.6449912568
  C         0.4509835099       10.0642842373       25.7544119119
  H         0.1071507717       13.6915649157       25.7960846583
  C        -0.0897920606       11.9800694102       26.9208916497
  H         3.8697159024       12.6427595380       22.8144634904
  H         3.5891098696       12.7674108753       24.4695078487
  C         4.7615663919       14.4199888415       23.6971301170
  C         2.4102966933        8.9415813996       19.9460890786
  C         0.0925230048       10.6619183825       27.0127285028
  H         0.5941673197        8.9811047876       25.8481455697
  C        -0.5748093432       12.3479231719       28.1375502174
  H         5.4681856903       13.9524645965       24.3563469415
  H         4.4442965435       15.3285798385       24.2080397347
  C         5.2417213324       14.6127287830       22.2447408186
  C         2.4398248615        7.5493602378       19.7345277672
  C         2.7159955682        9.8395375645       18.8055549339
  C        -0.4617222866        9.9161913821       28.2303510642
  C        -0.7246320439       11.2151219410       28.9553638903
  S        -0.9790667356       13.8024576600       28.9021197772
  H         5.5176793174       15.6232305816       22.1477527195
  H         4.4151193285       14.5021492903       21.5645680030
  C         6.4428137249       13.7234103151       21.9214947162
  N         2.2530374574        6.5927111710       20.7259004906
  C         2.6276001366        6.9918819095       18.4693762430
  C         2.9463791818        9.3231990478       17.5622942534
  H         2.8129182994       10.8602023044       18.8991283507
  C         0.5643023724        9.0921823639       29.0080691630
  C        -1.8009016250        9.1624195067       28.0314733127
  C        -1.0310013882       11.5562312190       30.2838883279
  C        -1.2754099038       12.9289929221       30.4001456777
  H         7.1397435900       14.3776468419       21.4240568596
  H         6.8914947054       13.5250978136       22.8630596433
  C         6.1845259580       12.4265212165       21.1606262167
  S         2.2264166232        5.1771897542       20.0373207646
  N         2.5445778563        5.6493606431       18.5117279780
  C         2.8523832288        7.8017419467       17.3324504560
  H         3.1764841712        9.9432675062       16.7389555343
  H         0.7166435599        8.1324448250       28.4880983739
  H         0.1934575218        8.7215339382       30.0105959587
  C         1.9238598447        9.7308258358       29.1893976789
  H        -1.6645980067        8.2270168807       27.4905454359
  H        -2.1009084961        9.0755834685       29.0819998794
  C        -2.8684559421        9.9835086554       27.3553105184
  H        -1.0013510249       10.8060144581       31.0593794869
  C        -1.7294051726       13.6381123676       31.6196820930
  H         5.3406952275       11.9439320644       21.5833292250
  H         7.0725805912       11.8261103109       21.2516536255
  C         5.7592175750       12.6661796449       19.7187403006
  C         3.0953888836        7.1380566133       16.1219354398
  H         2.5652873570        9.5175760147       28.2971159143
  H         1.7674389999       10.7689015923       29.0866619594
  C         2.5741041603        9.4659279850       30.4821311673
  H        -2.5007914429       10.3425306005       26.4067547415
  H        -2.9692208140       10.8137284454       28.0353660527
  C        -4.2296028136        9.2331648463       27.1800853886
  C        -1.8330816956       15.0563414157       31.7716719038
  C        -2.0958724732       12.7913539929       32.8198825724
  H         5.2640465381       11.7244881392       19.4295477337
  H         4.9976962369       13.4410193172       19.6979911926
  C         6.9819749835       12.8633909120       18.7607023631
  H         3.2743693156        6.1306389976       16.2786949031
  C         3.4147977119        7.5465898030       14.8664379360
  H         2.4916585861        8.4471303987       30.8797856655
  H         2.1153339288       10.0845849003       31.2767446427
  C         3.9806379460       10.0228153993       30.4503060235
  H        -4.1893941825        8.3290741794       26.5229222827
  H        -4.5743063299        8.9552483103       28.1935105393
  C        -5.2615690974       10.1809902615       26.5594368122
  N        -1.4706553919       16.0143206974       30.8314738566
  C        -2.1832832896       15.5912433768       33.0297811569
  C        -2.5118193873       13.4128002030       34.0352733459
  H        -2.1240493154       11.7114941540       32.7112797166
  H         6.8638709986       12.5230432524       17.7405493191
  H         7.2007119988       13.9182019786       18.6648089933
  H         7.7837080024       12.2038553796       19.1336365524
  S         3.7464217351        9.1174999890       14.2427649901
  C         3.4450371801        6.4660423792       13.8624790684
  H         3.9687471406       10.8107543508       29.7510034545
  H         4.3941171330       10.4879957126       31.3942982727
  C         5.0830137384        9.0962484568       29.9544849258
  H        -4.8652841526       10.6471807437       25.6680406720
  H        -5.4474991726       11.0001543441       27.2809348342
  C        -6.6222103709        9.5849480520       26.2517341491
  S        -1.6143729560       17.4604676444       31.5588950155
  N        -2.2315366942       16.9581825070       33.0190130110
  C        -2.4901393393       14.8754721126       34.1924494363
  H        -2.7336298918       12.7078330838       34.8616898425
  C         3.9656931190        8.3213659835       12.6288565490
  N         3.6808944109        6.9874088132       12.6438160361
  O         3.3583624076        5.2506463496       14.1642690587
  H         5.9139012711        9.6039151919       29.8706521166
  H         4.7684802060        8.6301169834       29.0364815671
  C         5.4429468334        7.9716105906       30.9645277022
  H        -6.6392024393        8.5237080441       26.0387033187
  H        -7.1424093020        9.8054521836       27.2038864435
  C        -7.2848494100       10.3385220415       25.1436768844
  C        -2.8731493501       15.6369705897       35.3633159269
  S         4.1425422424        9.1180027798       11.0865220135
  C         3.5909331874        6.1374231231       11.4881412481
  H         6.0851766077        8.3834928001       31.7748155349
  H         4.5191293804        7.7671149282       31.5014378442
  C         6.1033923123        6.7126634961       30.3412155147
  H        -6.5919458364       10.5051121678       24.3393061119
  H        -7.6666479427       11.2175267401       25.5393404991
  C        -8.3950913563        9.4899798628       24.5975533910
  H        -2.4903749082       16.6264886342       35.3729436832
  C        -3.3736852144       15.2976667016       36.5844878154
  H         4.3306225850        6.3015583644       10.6784161811
  H         3.6423716894        5.0985366491       11.7783644274
  C         2.1681207256        6.3544699405       10.8571943777
  H         7.1313760565        6.9470679732       29.9674515397
  H         5.4843044285        6.2950648935       29.5670392014
  C         6.4507338945        5.6977271001       31.4230103293
  H        -8.7978171709       10.0552137395       23.7322226271
  H        -8.0542986917        8.5558318584       24.1554030498
  C        -9.5251141480        9.2398601575       25.5916737550
  S        -3.9359586746       13.7866204678       37.0645862205
  C        -3.3511564868       16.3732591572       37.6194190173
  H         1.8926734752        5.6538758961       10.0641955461
  H         1.3664951584        6.0396713077       11.5726406318
  H         2.0698656932        7.3794563237       10.4955410928
  H         7.4349907714        5.2722515629       31.0728645189
  H         5.7359576085        4.8864855487       31.4914619494
  H         6.5758655552        6.2140053218       32.3597004660
  H       -10.4853911495        8.9845622945       25.2023673804
  H        -9.6889598206       10.0166391267       26.3638448059
  H        -9.1901148531        8.3854008799       26.1589384165
  C        -4.6125718049       14.6780040455       38.4861661222
  N        -4.1683297192       15.9567058829       38.6617901313
  O        -2.9582969180       17.4969806136       37.4486319189
  S        -5.6861912647       13.9494782951       39.6670717098
  C        -4.3247387479       16.7583004405       39.8996150353
  H        -4.2258622996       17.8223638215       39.5104223927
  H        -5.3534866677       16.7277959865       40.3190581153
  C        -3.1908431583       16.5074352245       40.8158508598
  H        -2.9756954521       15.4674502676       40.9492049971
  H        -2.2753015180       17.0299869201       40.5104627496
  H        -3.4424696266       16.8184985259       41.8152195077
  H         7.4814995666       10.9031896994        3.4568781760
  C         8.1175777559       10.0741161153        3.5495459987
  H         7.6681255385        9.1658218067        3.2355785786
  C         8.8954171042       10.0793304769        4.8939873068
  C         9.0266256792       10.4218464130        2.4301754389
  C         8.0758957971       10.3022181136        6.1772263174
  H         9.3800789711        9.0640310964        4.8807481914
  H         9.7424948026       10.7330266562        4.7684455316
  H         9.4889222487        9.5620276391        2.0463781772
  H         9.8791433435       11.1018167030        2.6684408355
  H         8.3385363005       10.9280721341        1.8172695264
  C         7.2845172940        9.1139525155        6.5014496883
  H         8.6509330076       10.5942210671        7.0084716878
  H         7.4035984334       11.1612965353        6.0451850435
  C         6.4065121949        9.2680799560        7.7225784147
  H         7.9765000109        8.2895430292        6.6149428044
  H         6.6950485132        8.9406027039        5.6142776918
  C         5.1376321747       10.1647187737        7.5470668386
  H         7.0013928231        9.5508433026        8.6152431025
  H         6.1841088270        8.2337130608        7.9525521288
  C         3.9513922483        9.4820419138        6.8702051025
  H         4.8319103608       10.5653403254        8.5333875514
  H         5.4080573703       11.0298360243        7.0132555690
  C         2.7332654110       10.3177066589        6.5713822431
  H         3.6370402564        8.6354268618        7.4717372212
  H         4.2665196797        8.9693005675        5.9637475536
  C         3.0947822660       11.6927794534        5.9941018057
  C         2.3202122767       10.9921208570        7.8247757848
  C         1.7290451293        9.5546959876        5.6898291100
  C         2.8601966327       12.7856746800        6.8169347790
  C         3.6387443651       12.1876851800        4.7611168117
  C         2.3497777237       12.3513764820        8.0122379556
  C         1.7621762417       10.3499391325        8.9537247277
  H         2.3319239803        9.1185958281        4.8807851153
  H         1.3687617604        8.7392492403        6.3201200611
  C         0.5202072003       10.3765101555        5.0590393589
  S         3.1551949933       14.3657972772        6.1502209107
  C         3.6703382569       13.5821484360        4.6975469712
  H         3.8884111730       11.4645615343        4.0063158392
  C         1.9400930328       12.9630857564        9.1652197985
  H         1.6031323546        9.3030348279        8.9195355642
  C         1.3690196961       10.9566753264       10.1202251271
  H         0.8238446678       11.3125266472        4.6741302237
  H        -0.1291310463       10.6858455546        5.8828822003
  C        -0.2414799973        9.5984667165        3.9442970272
  C         4.1114355278       14.3265820001        3.4392200157
  C         1.4177972722       12.3185478154       10.2682672273
  H         2.0726182540       14.0627568110        9.1396662115
  C         0.9188083048       10.5598088597       11.3928442225
  H        -0.7619104728        8.7053322712        4.2931024754
  H         0.5173891276        9.3194058399        3.1821503552
  C        -1.3248456706       10.4536294903        3.2764913595
  C         3.8901903430       15.7476051568        3.2290483795
  C         4.5996069062       13.5038481759        2.3161245077
  C         1.0157450170       12.9990256124       11.5132505886
  C         0.7183746599       11.6923555413       12.1910941300
  S         0.5909993045        9.0937225777       12.2636881168
  H        -0.8979601669       11.3964727388        2.9225558311
  H        -1.9705224260       10.7338325709        4.0424782501
  C        -2.2677809831        9.6353550158        2.3774786935
  N         3.5081893272       16.6033500911        4.2426667778
  C         4.2119885482       16.3602158031        2.0137771834
  C         4.7863379400       14.0985655019        1.0515752912
  H         4.9412801168       12.4579823155        2.4327392663
  C        -0.2514331555       13.7982207131       11.3382293605
  C         2.2882416429       13.7185584305       12.1700641446
  C         0.4008253030       11.3314981072       13.5190016348
  C         0.2216147016        9.9559787957       13.6880774408
  H        -2.6236908274        8.8727919599        2.9731580616
  H        -3.2016343122       10.1594476764        2.1611346757
  C        -1.5832956063        9.1211581160        1.0505420702
  S         3.5384016514       18.1123005771        3.5807184676
  N         4.0504501976       17.7841007486        2.0689242103
  C         4.6299336809       15.5684621715        0.8827446114
  H         5.2350921003       13.5270137670        0.2656563768
  H        -0.0615988829       14.6363329516       10.7037620459
  H        -0.4744670892       14.3361509026       12.3261086230
  C        -1.4956485112       13.0502294421       11.0019282411
  H         2.7879318906       14.3387122241       11.4749761430
  H         1.9311220385       14.4020050301       12.9445075939
  C         3.3466003377       12.8065378940       12.7901673354
  H         0.2764288561       12.1512973909       14.2405311254
  C        -0.0592099263        9.1943887030       14.9565808154
  H        -2.4173700152        8.7368356347        0.5282515182
  H        -0.8289803827        8.2841377632        1.2288066876
  C        -0.8781514308       10.2223798986        0.2805608312
  C         5.0055111053       16.3415699113       -0.2516860382
  H        -1.3522007839       12.5172029785        9.9940121453
  H        -1.7526217373       12.2683799109       11.7459219333
  C        -2.7313638056       13.9865962810       10.7561471104
  H         3.7585159381       12.1731759885       12.0169795758
  H         2.9224263082       12.1711129358       13.5178083102
  C         4.6113982793       13.5341076193       13.2607622480
  C        -0.0637134077        7.7538565154       15.1186609997
  C        -0.3935692483        9.9867930556       16.1899530601
  H        -1.2601862981       11.2052188482        0.4559928118
  H         0.0923876057       10.3549133375        0.6180834715
  C        -0.9954484776       10.1246547184       -1.2255344414
  H         4.8429827154       17.3946293356       -0.1230398826
  C         5.3620740898       16.0299612851       -1.5429331411
  H        -2.3714279524       14.6638196012       10.0064679059
  H        -2.8838803297       14.7380224616       11.5413325221
  C        -3.9845676061       13.2461072643       10.4914360383
  H         5.2838200892       13.7914309727       12.4917167883
  H         4.2593018748       14.3964415987       13.7482996966
  C         5.2984479064       12.6085143874       14.2794961712
  N         0.2474478546        6.8762232183       14.1215064818
  C        -0.3106556467        7.1435218494       16.3298980706
  C        -0.6866997198        9.3244766561       17.3943779232
  H        -0.3508315448       11.0714879300       16.1243128965
  H        -0.3852633722       10.8766094360       -1.8093526802
  H        -2.0084334959       10.2279769708       -1.6630246624
  H        -0.6156925556        9.1851187597       -1.6228476091
  S         5.6063833412       14.4428390640       -2.1487893188
  C         5.3044448508       17.1206214480       -2.5464978441
  H        -3.8689027722       12.4349087891        9.7681057303
  H        -4.3465612344       12.8980233096       11.4467423081
  C        -5.1655623090       14.0221710231        9.9520271774
  H         5.2481639584       11.5420048225       13.8918362019
  H         4.6310445910       12.6084849801       15.1179157971
  C         6.7502364139       13.0283916696       14.5047346706
  S         0.1734383206        5.3302704107       14.7533810178
  N        -0.3555039683        5.7297900724       16.2096032834
  C        -0.6002689911        7.8761142795       17.5198067013
  H        -0.8010647637        9.9572229578       18.2744162866
  C         5.7674427784       15.1798728027       -3.7016213428
  N         5.6721747666       16.5582384612       -3.6938430801
  O         5.0687816841       18.3212059540       -2.2970747821
  H        -5.4373441722       14.8066359252       10.6157766308
  H        -4.7062173749       14.4918069028        9.1335144935
  C        -6.2635895425       13.1614107847        9.3797044012
  H         7.2211539915       12.3996781784       15.2225210277
  H         7.4061551863       13.0167797426       13.6336209772
  C         6.8852553256       14.4345070130       15.2313013193
  C        -0.8300480083        7.1502777252       18.7093913256
  S         6.2040581443       14.3588807212       -5.1801382213
  C         5.4846501944       17.3685968523       -4.8795125025
  H        -5.8695311525       12.8167287855        8.4788779808
  H        -6.4853491851       12.4435974889       10.1336771082
  C        -7.4575053433       14.0215019635        9.1301011933
  H         7.1767782643       14.2562464811       16.2454339753
  H         5.8117742189       14.7361777639       15.3754835864
  C         7.7124202724       15.5737849416       14.6085812161
  H        -0.6165647199        6.1189312750       18.6776331408
  C        -1.3375359752        7.4559363091       19.9092116527
  H         6.2557440902       17.0375557610       -5.6063379468
  H         5.6861203387       18.3993602804       -4.6620554487
  C         4.0899544366       17.2424125179       -5.5425283302
  H        -7.7046770814       13.8785155312        8.0968130040
  H        -7.1270033012       15.0593737132        9.2312810760
  C        -8.5815358966       13.6840060477       10.0566420829
  H         7.7789129902       16.4456527267       15.2982566581
  H         8.6898400116       15.1219261978       14.4772939390
  C         7.2571907053       16.1581332559       13.2822459469
  S        -1.8921838605        9.0179063012       20.4084738524
  C        -1.3680221652        6.4519693657       20.9893634445
  H         4.1171093110       17.6460378592       -6.6029151896
  H         3.3735211354       17.7739697435       -4.8861956928
  H         3.7366659423       16.2124166151       -5.6303093801
  H        -9.2983682977       14.4867216866       10.0843216183
  H        -9.0638052033       12.8466156283        9.7006588899
  H        -8.3538258007       13.4362028380       11.1191745084
  H         7.4258862018       15.4080889710       12.5039151672
  H         6.1904769750       16.2832696295       13.2622206841
  H         7.7685202985       17.1678322601       13.1906094856
  C        -2.2757085045        8.2860393391       22.0023084683
  N        -1.9496645824        6.9562077235       22.0932776016
  O        -0.9795587772        5.2830083922       20.7667155306
  S        -3.0922837033        9.2209989604       23.3925383513
  C        -2.0332063558        6.2539678676       23.3921845053
  H        -2.2771800757        5.2073531943       23.1108271331
  H        -2.8066768736        6.7109624591       24.0577825364
  C        -0.7681859574        6.4600204866       24.2351730531
  H         0.0593489989        6.0624033606       23.7430173705
  H        -0.7120517734        5.8194765584       25.1065567226
  H        -0.5257435087        7.5650569063       24.3084160995
