352
i =
  H        -2.9438605553       14.4539951444       16.0233758268
  C        -2.7265762614       13.3966386387       16.0634994678
  H        -3.6240185332       12.9782007125       16.4955733092
  C        -1.5576853408       13.1340956876       16.9955002206
  C        -2.5165336651       12.8952205006       14.6262771860
  C        -1.6962822887       13.6568183005       18.4457808792
  H        -1.5080781390       12.0146960064       17.1972557745
  H        -0.5697098434       13.4944052518       16.6201507095
  H        -3.4421767202       13.1525864428       14.0672548545
  H        -1.6665499258       13.3603289787       14.0640543389
  H        -2.3312893166       11.8467973166       14.6362371845
  C        -1.7821820551       12.5965664608       19.5931858366
  H        -2.6275579744       14.2204540498       18.6461501603
  H        -0.9873288182       14.4442130652       18.7465115685
  C        -2.3747594396       13.1922840529       20.9069394709
  H        -2.4925350447       11.8133018771       19.2640532452
  H        -0.7864656501       12.2744341883       19.7049881114
  C        -1.6827757403       12.5946244721       22.2023609591
  H        -3.3887800633       12.9543990963       20.9971758543
  H        -2.2123645051       14.2645975400       21.0060924462
  C        -0.2788840887       13.3060305689       22.4504288703
  H        -2.2787631336       12.8523831059       23.0639028153
  H        -1.7469750967       11.5262289147       22.1475462258
  C         0.8645087215       12.6720239341       23.1898521040
  H         0.1734401401       13.4760431699       21.4760938091
  H        -0.4271249208       14.3439954550       22.7741443707
  C         1.0956249071       11.3501665157       22.4782514305
  C         0.4729720062       11.9507771388       24.4033649851
  C         2.0402058207       13.5594531130       23.4157421248
  C         0.9656800264       10.2360896304       23.2796784987
  C         1.5241959723       11.0144960808       21.1968474874
  C         0.3904680198       10.5743747791       24.5148242452
  C         0.0786402871       12.5483758572       25.5891537437
  H         2.0753517849       14.2326877673       22.5762098029
  H         1.7490829636       14.2740459796       24.2085795565
  C         3.3818298086       12.8928785885       23.7224792070
  S         1.4552363876        8.7558763508       22.5739788246
  C         1.8661863398        9.6827710043       21.1387674892
  H         1.5618980645       11.7446973828       20.4154680040
  C         0.0110145730        9.9630210934       25.6521798632
  H        -0.1768585382       13.6424339479       25.5676390859
  C        -0.3316391721       11.9358329600       26.7109566240
  H         3.6362422179       12.1909728727       22.9296804643
  H         3.2416128405       12.3286793448       24.5983814241
  C         4.5756878449       13.8480910152       23.9926574718
  C         2.2322314303        8.8866301620       19.8809989356
  C        -0.4414225135       10.5721796104       26.8449038014
  H        -0.1169982540        8.9158875412       25.6138133087
  C        -0.7279195113       12.3559099428       27.9825296286
  H         5.2586632142       13.3075840363       24.5696085182
  H         4.2375494970       14.6360378778       24.6846499882
  C         5.1989809922       14.5229680710       22.7978110816
  C         2.3158305922        7.4978249226       19.7125842065
  C         2.4288334240        9.7707341357       18.6693612467
  C        -0.7590238524        9.9483218512       28.1067535841
  C        -0.9470552864       11.2629403530       28.8627478989
  S        -1.0739959973       13.8507182625       28.6815537581
  H         5.8177283444       15.3551385384       23.1870829111
  H         4.2622731765       14.8680733979       22.3025038899
  C         5.9816020140       13.6592626673       21.7605555021
  N         2.1726724582        6.6011453365       20.7566682251
  C         2.5905163968        6.8644066261       18.5362337907
  C         2.7758127814        9.0823031907       17.4829515762
  H         2.4697977004       10.7992367166       18.7428295978
  C         0.2849883578        8.9209283460       28.5957945986
  C        -2.0930415671        9.2667443110       27.8007841124
  C        -1.2996330299       11.6501216358       30.1422355475
  C        -1.4406441358       13.0011053185       30.1905243199
  H         6.7895838439       14.3532799517       21.4877282187
  H         6.5087653993       12.8792138259       22.2130831423
  C         5.1425939259       13.1286061498       20.5530799936
  S         2.3162582558        5.0793284637       20.2267783034
  N         2.4481020542        5.4892200930       18.6091883571
  C         2.8714010449        7.5719581811       17.3564689364
  H         3.0198309932        9.7672815148       16.6454097268
  H         0.3695048996        8.2286907116       27.7951861235
  H        -0.0037053334        8.4983978219       29.5634111235
  C         1.6062991320        9.6433767624       28.9684529188
  H        -2.0344061448        8.5242650629       27.0313893337
  H        -2.3977746897        8.7771667722       28.6526769889
  C        -3.2329317094       10.2138545668       27.2897294815
  H        -1.4538415982       10.9076329112       30.8681370145
  C        -1.7491537622       13.8082351620       31.4151975590
  H         4.1243056899       13.5713647188       20.5184759622
  H         5.0640876589       12.1101821610       20.6977726021
  C         5.8927453154       13.5900749018       19.2523568146
  C         3.1391094945        6.8942004195       16.1424959077
  H         2.0322607387       10.0783449898       28.0736668944
  H         1.3644069040       10.5076975522       29.6356792299
  C         2.7347935142        8.7106521986       29.4953531141
  H        -3.0340207219       10.6836131235       26.3214927619
  H        -3.3849782608       11.1396257843       27.8749865225
  C        -4.5546662253        9.4490395311       27.1815579747
  C        -1.7796603126       15.2322736024       31.5872271274
  C        -1.9831521176       13.0505843264       32.6985682257
  H         5.3387072505       13.2317498047       18.3619495571
  H         5.8088734088       14.6823629812       19.1558565691
  C         7.3497366124       13.0936818866       19.1215945710
  H         3.0905363847        5.7988058955       16.2015435470
  C         3.5932883899        7.3477098102       14.8876131243
  H         3.0755552464        8.2352567845       28.6019548441
  H         2.2986670066        8.0638550038       30.1947866356
  C         3.7077588804        9.6737941073       30.1591507616
  H        -4.3640052694        8.4785632868       26.6696834738
  H        -4.9886592170        9.2634623433       28.1816105067
  C        -5.6101121304       10.1598758615       26.3079772250
  N        -1.5861577813       16.1556056576       30.5846649063
  C        -2.0164560589       15.8635798007       32.8163668915
  C        -2.3008742538       13.6486784160       33.8990828370
  H        -2.0193422562       11.9547797164       32.6145122370
  H         7.4775036810       12.5022956057       18.1942029119
  H         8.0179895113       13.9523995328       19.0939031668
  H         7.6521776773       12.4364871044       19.9272030912
  S         3.9071943489        8.9743987542       14.2695316485
  C         3.7070746798        6.2946525200       13.7936147178
  H         3.7946702030       10.6202153859       29.6141390028
  H         3.3966030500        9.8757615523       31.1952929258
  C         5.0996126903        9.0052316135       30.1740522137
  H        -5.3385429891       10.2748063858       25.2584520780
  H        -5.6061447873       11.1786731006       26.7921508754
  C        -6.9487551024        9.4690127332       26.5413971595
  S        -1.5916464756       17.6639543885       31.1553243348
  N        -2.0508866660       17.2558434321       32.7173986781
  C        -2.2615505632       15.1300009692       33.9913526586
  H        -2.4275191812       13.0024938227       34.7546584021
  C         4.0917026836        8.2245016387       12.6850586904
  N         4.0692918093        6.8692474968       12.6243588623
  O         3.5966738254        5.0978205289       13.9975002072
  H         5.8590128437        9.7404787014       30.3802838611
  H         5.3058606919        8.5071525743       29.2725048141
  C         5.2256724987        7.9293563281       31.3021539623
  H        -6.7982926377        8.4082134601       26.4472222253
  H        -7.2899858010        9.6754536833       27.5652840814
  C        -7.9492454762        9.8964045154       25.4732481445
  C        -2.5980473539       15.8803281163       35.1540732934
  S         4.4768447769        9.2837867368       11.3477507159
  C         4.0403484607        6.1014385610       11.3758957149
  H         5.7466773415        8.3580744373       32.2369979361
  H         4.2128660033        7.6140089190       31.5385072843
  C         5.9137215515        6.6528560459       30.7869806610
  H        -7.5992598342        9.4449806391       24.4939529374
  H        -7.9798871171       10.9756855403       25.2847643070
  C        -9.4238026107        9.3893473674       25.6831344591
  H        -2.4757966052       16.9368640788       35.1329089955
  C        -3.0107521202       15.4401822985       36.4059400659
  H         4.8037706177        6.5611496909       10.6897619486
  H         4.4362242346        5.1650105457       11.5768118183
  C         2.6050654420        5.9569240198       10.8533834526
  H         6.7842145548        6.8956091071       30.2254953686
  H         5.3173327326        6.1218210184       30.0188490937
  C         6.0305777875        5.5320234654       31.8767417532
  H       -10.0524536799        9.6184800888       24.7501918889
  H        -9.3964252668        8.2844972455       25.9761496636
  C       -10.2187718058       10.1917659589       26.7786236513
  S        -3.4236786415       13.8614556232       36.9798974688
  C        -3.0858406349       16.5203756197       37.4846939576
  H         2.5290780375        5.1991202689       10.1222020247
  H         1.8945092351        5.7728084025       11.6449575790
  H         2.2542019953        6.8863594915       10.4020863109
  H         5.9773860783        5.8716934296       32.9316674374
  H         6.8311542413        4.7888211753       31.8105385954
  H         5.1032550800        4.9748134812       31.6975056909
  H       -10.9494187094        9.5316845088       27.1747298304
  H       -10.4715951878       11.2181159398       26.4330498990
  H        -9.6818960141       10.3761053165       27.6985928533
  C        -3.6864447871       14.6172294543       38.5439616758
  N        -3.4437943071       15.9494750268       38.6284641191
  O        -2.7744492706       17.7292772413       37.3192183368
  S        -4.5078725862       13.9484907436       39.8971926923
  C        -3.4199572195       16.7037610304       39.8928100868
  H        -3.7184319526       17.7492960147       39.5944639927
  H        -4.1026626331       16.3259807948       40.5834182266
  C        -1.9834290178       16.5979988937       40.4772796069
  H        -1.8986327358       15.6703561880       41.0531568770
  H        -1.1403440800       16.6749057346       39.8175632924
  H        -1.8462163251       17.4175578868       41.1976347501
  H         6.7639931721       11.3490186873        3.4690174649
  C         7.4875113180       10.5344175408        3.3883806344
  H         6.9517915380        9.5476959362        3.4566603723
  C         8.5053488342       10.6623958032        4.4714969671
  C         8.2251360122       10.5788597521        2.0461599505
  C         7.7673501384       10.7157565704        5.8536291209
  H         9.1737241324        9.8174254038        4.2812925992
  H         9.2031546151       11.5460652571        4.3783839490
  H         7.4858471028       10.7342374281        1.2479838063
  H         8.7672448572        9.6546286186        1.7739495417
  H         8.9459528769       11.3793875179        2.0148848859
  C         7.3491540390        9.3569366374        6.4092440980
  H         8.3905944560       11.2819365522        6.6267965952
  H         6.9086223521       11.3150445872        5.6879957319
  C         6.6230105613        9.2732971823        7.7069307561
  H         8.2301218709        8.7203380669        6.3319157381
  H         6.6193353064        8.8584449382        5.7756995366
  C         5.4032729063       10.1383496259        7.7643493953
  H         7.3447685715        9.5040683606        8.5064171242
  H         6.2978001949        8.2261204574        7.9216001200
  C         4.2247765310        9.5161526227        6.9869698677
  H         5.0480166890       10.1771474509        8.7712480187
  H         5.6781270316       11.1477378539        7.4582749262
  C         2.9951670862       10.3415526069        6.8463138462
  H         3.9380164089        8.6327412027        7.5471929456
  H         4.5199171000        9.2288271948        5.9661705654
  C         3.3280282843       11.7051035008        6.1769967319
  C         2.5631841791       11.0941649307        8.0973612793
  C         1.8078428049        9.6482165597        6.0935119383
  C         3.0654302816       12.8175093188        6.9279964640
  C         3.9044438104       12.0897606242        4.9271552393
  C         2.6161448529       12.4318430262        8.1819309402
  C         2.0178920961       10.4394653062        9.2096432364
  H         2.1238524777        9.4143551765        5.0969841966
  H         1.4369752871        8.7555231169        6.4976765176
  C         0.5449502773       10.4713999268        6.0401403140
  S         3.3496039778       14.3095993988        6.1925826439
  C         3.8073825913       13.4615553507        4.7254683885
  H         4.2086465749       11.3449783991        4.2321581418
  C         2.2217358564       13.0298861384        9.3719167677
  H         1.9704738828        9.4367833446        9.1484204413
  C         1.7122645366       11.0210238615       10.3953984483
  H         0.7469412905       11.4504637465        5.7462123901
  H         0.0455134770       10.5631192082        7.0088951357
  C        -0.4873663511        9.7791231742        5.1065818513
  C         4.3410494892       14.1657796387        3.5194557749
  C         1.7380133650       12.3849618248       10.5331871949
  H         2.3247720756       14.0688714029        9.4778666466
  C         1.3036774485       10.6088888919       11.6303815424
  H        -1.5105565039       10.1134593771        5.3798049777
  H        -0.4330057847        8.7338863961        5.2256288092
  C        -0.1147994695       10.0181196827        3.6180949334
  C         4.2530441714       15.5525682016        3.2658397638
  C         4.7828828056       13.3439680263        2.3285797466
  C         1.3421227522       13.0501775487       11.8085443121
  C         1.0840829861       11.6541678189       12.4745334301
  S         0.8694928142        9.0834614499       12.3108609528
  H         0.3368224647        9.1872942766        3.1815386850
  H         0.6367045219       10.8025761849        3.5607532882
  C        -1.3423200853       10.2749640300        2.8338979820
  N         3.9147191919       16.4443457543        4.2589184799
  C         4.4695398896       16.2166589334        2.0626242125
  C         4.9781432332       13.9571924984        1.1079429851
  H         4.8135711119       12.2618684286        2.3460442156
  C         0.0511596220       13.9727729476       11.6850612914
  C         2.5175308001       13.7718338957       12.3971743171
  C         0.6174787645       11.2392792982       13.7303354631
  C         0.4561914037        9.8897696312       13.8198942165
  H        -2.1935587265        9.9206987197        3.3733825620
  H        -1.3887640212       11.3285017860        2.7473590914
  C        -1.3507441221        9.7482559248        1.3836581244
  S         3.8617880043       17.9426999969        3.7179975654
  N         4.3566027748       17.6250813339        2.1338679790
  C         4.8278437048       15.4449309373        0.9143058889
  H         5.1818096424       13.3065251064        0.2393006174
  H         0.3624306071       14.9323637764       11.3288926326
  H        -0.2691540798       14.1004175575       12.6557339393
  C        -1.0214798852       13.3412124377       10.8665412735
  H         3.1508197753       14.3548907418       11.6799489859
  H         2.1564488725       14.4401817564       13.1615265168
  C         3.6257241146       12.9245339924       12.9532177505
  H         0.3543093471       12.0150597695       14.3974145026
  C         0.0897196408        9.2426631694       15.0717357033
  H        -2.2697763376       10.0351017016        0.9548632124
  H        -1.3349559794        8.6087866483        1.2382374181
  C        -0.2297187687       10.3623291571        0.5272287667
  C         5.0351002302       16.1110377647       -0.3297509483
  H        -0.7251725805       13.1992559829        9.8737674244
  H        -1.1875281317       12.3403931162       11.2087648954
  C        -2.3377930834       14.1333178245       10.9415504986
  H         4.0387498752       12.1309496908       12.3704207399
  H         3.3367084503       12.3924356442       13.8768515212
  C         4.7749725337       13.7860877608       13.4303048055
  C         0.0288210075        7.8348812280       15.2793917012
  C        -0.0706561161        9.9655078880       16.3197732659
  H        -0.1468910023       11.4351093579        0.6638866834
  H         0.7332920852        9.8518655578        0.7789508690
  C        -0.6449296414       10.1549229443       -0.8959094642
  H         4.8385407447       17.1882376444       -0.2051039139
  C         5.2869648117       15.7451582861       -1.6365028839
  H        -2.3720973988       15.1989446964       10.5005948311
  H        -2.5528208306       14.1911702148       12.0068836277
  C        -3.4248454366       13.3992535605       10.1986783293
  H         5.3919879186       13.9695669407       12.6062169635
  H         4.3394533264       14.7222800624       13.7984793959
  C         5.4575747941       13.0803508376       14.5897686278
  N         0.1068646080        6.9292484495       14.2289548839
  C        -0.2082426431        7.1981685851       16.4871810049
  C        -0.4235973515        9.4021642685       17.5703584440
  H         0.1556703212       11.0088518768       16.4138184965
  H        -1.0560560255        9.2004334523       -1.0905842062
  H         0.2234483515       10.3363592144       -1.6403888040
  H        -1.4436941829       10.8753091061       -1.0992597767
  S         5.6068468336       14.2114582715       -2.2734892154
  C         5.3107785898       16.8661614924       -2.5954972860
  H        -3.1281801159       12.4519922356        9.7143182342
  H        -4.1255099533       13.0426057649       10.9502618044
  C        -4.3968223501       14.2825892283        9.4547626703
  H         5.4795062713       12.0802837946       14.2782951024
  H         4.7784159125       12.8692060647       15.4471707288
  C         6.9306556034       13.4293382055       14.8395939156
  S         0.1840699773        5.4368694317       14.8341400755
  N        -0.1824104870        5.8258239652       16.3489042090
  C        -0.5015403323        7.9052039650       17.7074139457
  H        -0.5737054619       10.0279793901       18.4237036030
  C         5.7026837225       15.0168502117       -3.8671863506
  N         5.6282984168       16.3641236942       -3.7861754024
  O         4.9859680943       18.0055570004       -2.3052473136
  H        -4.8418986168       15.0896536468       10.0934609121
  H        -3.8425421352       14.7507808523        8.7054834245
  C        -5.4921748710       13.3625184355        8.9036765922
  H         7.2788031068       13.0206455359       15.7800455231
  H         7.5867438249       13.0331755755       14.0258161739
  C         7.0825745556       14.9846893962       15.0248966784
  C        -0.8795667888        7.1839596442       18.8858983935
  S         6.4292326729       14.2841831000       -5.2510977397
  C         5.8476091809       17.2980173025       -4.9174640017
  H        -5.1707515347       12.8405097438        8.0306386393
  H        -5.6677570585       12.5062764854        9.5937611023
  C        -6.8252128419       13.9573860035        8.6666966052
  H         7.7936800859       15.2734079347       15.7781703289
  H         6.1198402336       15.3058276813       15.3197638746
  C         7.6579335283       15.7662779451       13.7989092046
  H        -0.5256906570        6.1845722580       18.9766987086
  C        -1.3826154382        7.5038203071       20.1031388484
  H         6.7808316991       17.0829895040       -5.3646884785
  H         6.0066218208       18.2845650529       -4.5457470759
  C         4.7621995183       17.0866314924       -5.9416189954
  H        -7.3126383046       13.5533185170        7.8150643308
  H        -6.7794969159       15.0712133888        8.5641354543
  C        -7.7511404596       13.5832447330        9.8597844273
  H         8.3713295952       15.1373404490       13.2515930418
  H         6.7586866588       16.0246615471       13.1021606864
  C         8.2505554568       17.0648459105       14.2275337187
  S        -1.9726302418        9.0126629920       20.6880548481
  C        -1.3953240756        6.3530426856       21.1914941790
  H         4.3344946379       18.0593689793       -6.0755257195
  H         4.0754264182       16.2963596172       -5.7453045010
  H         5.1459270625       16.9046720839       -6.8994408006
  H        -8.5213894596       14.3906209261        9.9523603540
  H        -8.3080156491       12.6845770017        9.6121867564
  H        -7.2238680208       13.4478782999       10.7013445868
  H         8.6237985640       17.5719169455       13.3954041175
  H         7.4922024053       17.7230116823       14.6207112461
  H         9.0296418868       16.9756342098       14.9472568287
  C        -2.2890764813        8.1281758480       22.1871111643
  N        -2.0596024252        6.7916537747       22.2511759882
  O        -0.9022803082        5.2404882392       21.0454718132
  S        -2.6720406117        8.9465238821       23.6616659475
  C        -2.2729577867        6.1115519980       23.5005938627
  H        -2.4832094833        5.0673458261       23.2046629351
  H        -3.1714777799        6.4446837536       23.9716053700
  C        -0.8870354333        6.2484520646       24.2562467226
  H        -0.7306547021        5.2541469196       24.5881012137
  H        -0.8342965991        6.8668058507       25.1353342004
  H        -0.0357537300        6.5118176138       23.6751487035
