352
i =
  H        -3.3645770120       15.0236622330       16.5373600008
  C        -2.9362331793       13.9630740452       16.5939680975
  H        -3.6904655534       13.3027157991       16.9984005262
  C        -1.8171785227       14.0658933946       17.5332192228
  C        -2.5229290939       13.4078449005       15.2539868920
  C        -2.4667248833       13.8713524434       18.8566461489
  H        -0.9890165469       13.3244832212       17.3198783970
  H        -1.2682464787       15.0544894507       17.5079601431
  H        -1.4127545229       13.4628213398       15.1976401571
  H        -2.6622207472       12.3040555195       15.4091025226
  H        -2.9994526635       13.7000932431       14.3115970506
  C        -1.4303789974       13.3634943295       19.8059329504
  H        -3.3999528714       13.3670028098       18.9630005493
  H        -2.6862891730       14.8479245169       19.1895455809
  C        -1.7958932926       13.5551196651       21.2578402192
  H        -1.3548997922       12.3281986370       19.5461734435
  H        -0.4716454917       13.9049020652       19.6410359826
  C        -0.8267369344       12.8746113192       22.2001991664
  H        -2.7967017373       13.1261644625       21.2243498558
  H        -1.9198914173       14.6092532416       21.4278743272
  C         0.4031530917       13.7931560530       22.4258808862
  H        -1.2359563895       12.5729864099       23.1640953277
  H        -0.5157720105       11.9224877171       21.6916958335
  C         1.6273741323       12.9941080134       23.1713690353
  H         0.7625372564       14.3900625094       21.5911650524
  H         0.0862460736       14.6047192874       23.1366104963
  C         1.9508340023       11.6240740330       22.5093862891
  C         1.1574605585       12.2454765086       24.4039438047
  C         2.8609205377       13.8948406433       23.3887706412
  C         1.6434522639       10.4995902229       23.2471318328
  C         2.4527365820       11.2260626214       21.3181321835
  C         1.1490680974       10.9084741542       24.4705716280
  C         0.5642927394       12.8679111881       25.5069750275
  H         3.1269905687       14.3972946708       22.5026311597
  H         2.5905079991       14.6870931913       24.1041341729
  C         4.1042594119       13.1459582121       23.9398263423
  S         1.9320700383        8.9782762748       22.4916556134
  C         2.4793019817        9.8450000600       21.1572746828
  H         2.6424887444       11.9759577321       20.5683410247
  C         0.6905697691       10.2470001063       25.6326831396
  H         0.3723819726       13.9127320830       25.4207627254
  C         0.2817021931       12.2842741360       26.7084923724
  H         4.5259736749       12.4715864328       23.2593770508
  H         3.8234735557       12.5523661553       24.7458883816
  C         5.2968978492       14.0536408641       24.3733471950
  C         2.7403679545        9.2841914492       19.7777181198
  C         0.3239313747       10.8893484201       26.7876315136
  H         0.6874560098        9.1957002436       25.5308965387
  C        -0.1983624458       12.7132804748       27.9267927261
  H         5.8214606066       13.4158863188       25.1128157691
  H         4.9254317603       14.9394061934       24.8915893347
  C         6.1842703223       14.5321535917       23.2457704720
  C         2.7020694974        7.8960242856       19.4341922535
  C         3.0738536738       10.1452615067       18.6245720548
  C        -0.1449710874       10.3270123315       28.0438262952
  C        -0.3756448447       11.6641175168       28.7524928447
  S        -0.6224619935       14.1958167767       28.6572987922
  H         6.9525761819       15.1204878959       23.7011595338
  H         5.4200431704       15.1248745266       22.6613602261
  C         6.8881231440       13.4856355878       22.3871194570
  N         2.2902187818        6.9270839448       20.3392367627
  C         2.9598169621        7.4197963939       18.1651114149
  C         3.3006784520        9.7139956294       17.3438673914
  H         2.9215928665       11.2053581953       18.7191491415
  C         0.9427320055        9.4533637481       28.6647281850
  C        -1.5138075527        9.5870086114       27.8791416900
  C        -0.8544046294       12.0213715762       30.0278697637
  C        -0.9813491802       13.3623791965       30.1391953297
  H         7.9529887140       13.5303119475       22.5989468452
  H         6.5191343187       12.5181889107       22.6966429615
  C         6.5790207734       13.6762488783       20.8785376460
  S         2.3293312323        5.4865002509       19.5802233357
  N         2.6761247662        6.0392733446       18.0496042616
  C         3.2703662810        8.2738437129       17.0761352988
  H         3.6793593679       10.4158300227       16.5770274915
  H         1.0439339682        8.5214761552       28.0955341477
  H         0.5671271707        9.1023796207       29.6337449125
  C         2.2321425232       10.2451018689       28.8798421529
  H        -1.4017634148        8.5362315573       27.6153591906
  H        -1.8590210250        9.5103423481       28.8537559644
  C        -2.5547680395       10.4038445129       27.0969647336
  H        -0.9721009916       11.2056198440       30.7099616748
  C        -1.4242939137       14.0857896844       31.3970424258
  H         6.3563215654       14.6862429692       20.6899125508
  H         5.6892807073       13.0407999405       20.5527967088
  C         7.8606484563       13.3386106585       20.1651936191
  C         3.4551279908        7.6208297887       15.8317820561
  H         2.9122591857        9.8507960836       28.1156324783
  H         2.1116282082       11.3170039274       28.7333518444
  C         2.9493453993       10.0172519554       30.2162109217
  H        -2.2998872186       10.4720125926       26.0835126022
  H        -2.6420915283       11.4118021092       27.5109671028
  C        -3.9584404443        9.7307823032       27.1796139742
  C        -1.4481852902       15.5145546547       31.6250326069
  C        -1.6291033619       13.2754588728       32.5694997377
  H         8.6096020180       13.9526559487       20.4548506235
  H         8.1375662572       12.3254087636       20.4036715752
  C         7.6241209262       13.3339614749       18.6686141931
  H         3.6562132513        6.5970297126       15.9229214522
  C         3.8139212290        8.0951260559       14.6115090487
  H         2.6747483201        8.9900366869       30.5080430964
  H         2.5364828860       10.7619281609       30.9283303770
  C         4.3935918839       10.2845249043       30.0839425697
  H        -3.9676526836        8.8584733068       26.5401510692
  H        -4.1517779697        9.4660820165       28.2227284558
  C        -5.0624118179       10.6376760862       26.6385439612
  N        -1.3180719861       16.4752276478       30.6296932520
  C        -1.8086452814       16.0737741430       32.8548611241
  C        -1.9074977076       13.8438810794       33.8045729526
  H        -1.5657075600       12.2236802436       32.5440939046
  H         8.6007880700       13.2621461671       18.2667642498
  H         7.2153889587       12.3519561169       18.3494769477
  H         7.0752783890       14.1777850531       18.2572598237
  S         4.2270287691        9.7647929017       14.2032462244
  C         3.8417140679        7.1304846222       13.4487684970
  H         4.3738292965       10.9631521541       29.2836587034
  H         4.7912772029       10.7963794198       30.9427533662
  C         5.2681067971        9.0591188525       29.6866253189
  H        -4.8444836268       11.0743901952       25.6787007678
  H        -5.2754404523       11.4215980775       27.3676924403
  C        -6.3830557803        9.9395650618       26.4634739513
  S        -1.6549245475       17.8570081453       31.2943143760
  N        -1.8869348235       17.4534588019       32.8274184998
  C        -2.0342367048       15.3540278417       34.0292540897
  H        -2.0464753247       13.2700337855       34.6163436158
  C         4.2732613619        9.1875100070       12.4996154146
  N         4.2060693250        7.8013684859       12.3182905280
  O         3.5979142371        5.9299653730       13.5350044770
  H         6.2742924364        9.4463597257       29.4096957225
  H         4.8611020235        8.5988036183       28.7586655233
  C         5.3487518968        7.9797187069       30.6811299891
  H        -6.2584838668        8.8534258609       26.4439713054
  H        -6.8769710732       10.1651248712       27.3497860512
  C        -7.0704216144       10.3784871719       25.1729337503
  C        -2.3383803670       16.0426216395       35.3021423225
  S         4.4726667409       10.2797473676       11.0632547810
  C         4.3548581639        7.2419454354       10.9829938264
  H         5.5230628371        8.3443698055       31.7014698290
  H         4.4409600199        7.2818970458       30.6589040971
  C         6.5201644776        7.0164268403       30.5232913257
  H        -6.5618217616        9.9700890654       24.3070106692
  H        -6.9772033377       11.3980229670       25.2067680845
  C        -8.4956680425        9.8061278750       25.0758821431
  H        -2.1106835341       17.0695594954       35.3620945647
  C        -2.8278850637       15.5407551420       36.4943881579
  H         4.9837374559        7.7747836645       10.2719371971
  H         4.8188160480        6.2816827934       10.9896626639
  C         3.0192816254        6.9544777533       10.3432623620
  H         7.3065190789        7.4671649300       29.9572295566
  H         6.2212992070        6.1920222718       29.9554686601
  C         7.0400163960        6.6127127607       31.9161586361
  H        -8.8721701989       10.1760354401       24.0666802460
  H        -8.4112974683        8.7569615329       24.9970749885
  C        -9.4513329751       10.1403146887       26.2084185679
  S        -3.4721127012       14.0174672805       36.8423548068
  C        -2.8326556328       16.5208457595       37.6413282218
  H         2.7109721719        7.7593563119        9.7628757778
  H         3.1242515709        6.0884988588        9.6916441178
  H         2.3222787363        6.7644121185       11.1141954973
  H         7.4884870698        5.5652951762       31.8641103098
  H         6.2591980985        6.6859711278       32.7190735335
  H         7.7755524158        7.3689883472       32.0803882065
  H       -10.4244438635        9.6135684720       26.1397810706
  H        -9.6290635971       11.2168905419       26.1794208086
  H        -9.0502070536        9.9054854284       27.1767946894
  C        -3.9223702222       14.6392991949       38.4180557299
  N        -3.6468096675       15.9185375864       38.5791460897
  O        -2.4853763599       17.6927850050       37.5630949376
  S        -4.5967045346       13.7414253631       39.7372371904
  C        -4.0344365939       16.6703733691       39.7195074466
  H        -4.1428249500       17.7015530070       39.5278247951
  H        -4.9588661549       16.3315546105       40.2113502280
  C        -2.9018986368       16.6454365001       40.7633153102
  H        -2.3919416706       17.5976123919       40.7893453537
  H        -3.3339447804       16.4302778039       41.7580957247
  H        -2.2061932406       15.8754451410       40.4680961444
  H         7.2898146289       10.5726942328        3.1419057252
  C         8.2589284519       10.0759677569        3.1343320005
  H         7.9471052903        9.0079807468        3.1729104498
  C         9.0483186197       10.4737511402        4.3175554039
  C         8.8046850476       10.3779664056        1.7528600189
  C         8.1224315463       10.6077131436        5.5334599834
  H         9.8475808845        9.7621645980        4.5468426047
  H         9.5453059871       11.4468259925        4.0898647391
  H         9.5848359502        9.6958552375        1.4760007603
  H         9.2055664762       11.4393051318        1.8461474417
  H         8.0204988704       10.3961383703        1.0229726641
  C         7.4427144624        9.2548644268        6.0586454467
  H         8.7789559575       10.8749360741        6.3698128850
  H         7.3546870245       11.3416247381        5.3007533318
  C         6.6463801172        9.5715555945        7.3862280341
  H         8.1693191381        8.4725761630        6.4089017533
  H         6.8292690161        8.7956069178        5.3167351823
  C         5.3325196078       10.4237901577        7.2840481687
  H         7.2695897793        9.9734677657        8.1945675667
  H         6.2537510535        8.5908115064        7.7588176611
  C         4.0714779596        9.7389432871        6.7134787019
  H         5.0945981089       10.7475564940        8.2994169314
  H         5.6190496037       11.3399353640        6.7749722513
  C         2.7784146202       10.6033772039        6.5432407480
  H         3.9054020483        8.9205835945        7.4181248282
  H         4.2918788494        9.4018734704        5.7808039497
  C         3.0870852485       11.9853345759        5.9671725639
  C         2.4223942064       11.2682497040        7.8202375510
  C         1.6371083257       10.0035085240        5.7069388508
  C         2.9121136168       13.0744265890        6.7722502719
  C         3.6707323436       12.4358058719        4.7331207978
  C         2.4828411343       12.6278980115        7.9848315823
  C         1.9036899013       10.6056405506        8.8878699504
  H         2.0406750062        9.4513870349        4.8502215860
  H         1.0423606300        9.3519051721        6.2874361230
  C         0.5889215119       11.0584892551        5.1518663588
  S         3.2949924844       14.6188551555        6.1461415150
  C         3.7890905301       13.8105570102        4.7118198215
  H         4.0324954698       11.7295327905        4.0054851403
  C         2.1188650384       13.2202914002        9.1547453576
  H         1.8471725079        9.5473916625        8.8202890712
  C         1.6057284369       11.1638601786       10.1334410522
  H         1.0293759417       11.7730654537        4.4661919411
  H         0.0546159358       11.5958449892        5.9292581949
  C        -0.5454726746       10.3673875893        4.3595396748
  C         4.0936401696       14.6434790254        3.5250769939
  C         1.6712318955       12.5407794514       10.3004572919
  H         2.1694913466       14.3355126040        9.2940345402
  C         1.2438018629       10.7721172554       11.4534038623
  H        -1.5412262424       10.7308186308        4.4500858452
  H        -0.6374587379        9.4136288530        4.8400362699
  C        -0.2492910681       10.3087321237        2.8587450871
  C         4.1213796938       16.0594686134        3.3224423155
  C         4.6260470539       13.8724481292        2.3415232618
  C         1.3247856449       13.1852723456       11.5711437475
  C         1.0555403302       11.8845146572       12.2679001800
  S         0.9744774007        9.2470168731       12.3055719264
  H         0.8132818348        9.9846763321        2.6976380977
  H        -0.2162342441       11.3304003886        2.5152472970
  C        -1.3250801921        9.7119601255        1.9242561786
  N         3.7040270409       17.0140593434        4.2632029200
  C         4.3869450026       16.6608256339        2.1214392576
  C         5.0390080739       14.5477687021        1.1677613916
  H         4.7485949795       12.8040696378        2.3890820912
  C         0.0227301298       13.9805509236       11.4455803376
  C         2.6375971955       13.9133101868       12.0058906786
  C         0.6595574010       11.5401848007       13.5289392412
  C         0.5735937379       10.1620372078       13.6958444297
  H        -2.0616800177        9.1653692575        2.5319738971
  H        -1.8120433731       10.5543514366        1.4928131135
  C        -0.7244215154        8.9364023231        0.8531295748
  S         3.6617074523       18.4574577618        3.6100304697
  N         4.1653238846       18.0256569096        2.1784957460
  C         4.8598484614       16.0155812315        0.9621518998
  H         5.4378268949       13.9650574771        0.3751390514
  H         0.2284216444       14.7367471087       10.6804790567
  H        -0.0435734033       14.4269940317       12.4837619729
  C        -1.2060775515       13.1431723562       11.1260251989
  H         3.5262792290       13.7786991707       11.3123001547
  H         2.2518661775       14.9470412375       11.7991123138
  C         2.9779100928       13.8938536364       13.5237752937
  H         0.4444812173       12.3245657670       14.2572387043
  C         0.2586825889        9.4937482769       15.0006145143
  H        -1.4668262208        8.3608658122        0.3088028292
  H        -0.0903801358        8.1949385371        1.4113277028
  C        -0.0044775377        9.7859586791       -0.3145150907
  C         5.1521610671       16.6739532906       -0.2923323998
  H        -1.1084950900       12.6274949354       10.1508565498
  H        -1.3854403841       12.3906412898       11.8765850245
  C        -2.4581175808       14.0462185397       10.9783264304
  H         2.8861399460       12.8485589876       13.8036851699
  H         2.2358025886       14.4569990896       14.0799608822
  C         4.3317407421       14.4883831823       13.9642719263
  C         0.1810791788        8.0627366896       15.2041648110
  C         0.0560116619       10.3377488241       16.2508018993
  H         0.5546959943       10.6164646911        0.1228666126
  H         0.6828726410        9.1894779556       -0.8900871310
  C        -0.9962839950       10.4691237240       -1.2466135614
  H         4.9204752908       17.7148702704       -0.2487537472
  C         5.5751193485       16.2736195484       -1.6013271770
  H        -2.3025514872       14.7841172762       10.2459910855
  H        -2.6109121180       14.5649769411       11.9413762565
  C        -3.5631042278       13.0839579981       10.5719325150
  H         4.4427668847       15.4996183395       13.6386814349
  H         4.4075625449       14.4862852751       14.9986963381
  C         5.5274291561       13.5463366056       13.6526480575
  N         0.4490148039        7.0732221143       14.2629869179
  C        -0.0550032430        7.5098926055       16.4679043651
  C        -0.2355777416        9.8071383335       17.4615649199
  H         0.1632964193       11.3948004109       16.1354200828
  H        -1.7743966803       10.9383166151       -0.6512870931
  H        -1.4226219005        9.7281480060       -1.9764567584
  H        -0.3929027268       11.1245604151       -1.9176166710
  S         6.0167203217       14.6677815145       -2.1836452942
  C         5.5276047394       17.2667112409       -2.7077561125
  H        -3.3640560501       12.5759167957        9.6134471552
  H        -3.6646048902       12.2066164493       11.2628076007
  C        -4.9851977908       13.7042487887       10.4112192561
  H         5.1848219727       12.9526386742       12.8437592506
  H         5.6716510121       12.7940091689       14.3957594964
  C         6.8059612571       14.3129893558       13.3200724088
  S         0.3623456292        5.6319747923       15.0016208098
  N        -0.1186568297        6.1460799620       16.5404793469
  C        -0.3168815159        8.3087953793       17.6127373437
  H        -0.2813377187       10.4375794028       18.3409862425
  C         6.0831163639       15.3740232604       -3.7597270848
  N         5.8395010820       16.7201670077       -3.8835207830
  O         5.1667137839       18.4538387872       -2.5345109044
  H        -5.5500584292       13.6234824645       11.3295982200
  H        -4.9731393453       14.7599193705       10.1046208275
  C        -5.7457515718       12.9856103236        9.4010019091
  H         7.4499979466       13.5285057422       12.9631230451
  H         6.5946463211       14.9367147104       12.4196210533
  C         7.4167560675       15.1359796702       14.5139968499
  C        -0.6860590095        7.6631713048       18.8383399488
  S         6.5740790009       14.4735161929       -5.1816018378
  C         5.8844683645       17.4917956926       -5.1581557808
  H        -5.1714751573       12.8073525435        8.4926345543
  H        -6.0843443078       12.0939844571        9.8409280231
  C        -6.9846178034       13.7776305881        8.9409179568
  H         7.8218906600       14.4555899359       15.3022199098
  H         6.6663559779       15.7372221505       14.9547172936
  C         8.5377604298       16.0264853762       13.9864535856
  H        -0.1337197961        6.6577484855       18.9583359767
  C        -1.3383183576        8.0629489425       19.9807886978
  H         6.7275395359       17.4286172783       -5.8159499237
  H         5.8724961340       18.4807225532       -4.8485978842
  C         4.5550896311       17.3202037044       -5.9233277236
  H        -7.2190069220       13.3681601248        7.8728017624
  H        -6.7618649924       14.8351180433        8.8129116956
  C        -7.9882728022       13.7327113052       10.0993346233
  H         9.3428753975       16.0442144645       14.6737338276
  H         9.0202273549       15.5668554954       13.0972243574
  C         8.0410232683       17.4655894183       13.6536631551
  S        -1.9060385626        9.6785798854       20.3930499096
  C        -1.3846149078        7.0600996782       21.0961779077
  H         4.5053201270       17.0856724043       -6.9767030940
  H         4.0900798611       18.3698550690       -5.8217118694
  H         3.9200313488       16.6279391902       -5.2969990319
  H        -8.9111139187       14.1493641320        9.7007823052
  H        -8.2105896779       12.8005038166       10.6721038511
  H        -7.6098626264       14.4672242317       10.8216240223
  H         7.0460508869       17.5557311471       14.0395359335
  H         8.5654293511       18.3142492436       14.0893266984
  H         8.0263442411       17.6574357275       12.5795147438
  C        -2.1764027230        9.0008270768       22.0313515303
  N        -2.0707318412        7.6550319802       22.1190130334
  O        -1.0697301446        5.8457229813       20.9814680850
  S        -2.9395323670        9.7669647071       23.3347114712
  C        -2.2987881036        6.8979707289       23.3063793722
  H        -2.4062692288        5.8572852852       23.0700058937
  H        -3.2583670533        7.1569907920       23.7364373342
  C        -1.0734055412        7.0292580782       24.3084857221
  H        -1.0194221504        6.1281252204       24.9356329902
  H        -1.1791460515        7.9352133273       24.8383536676
  H        -0.1875295272        7.0542398698       23.6951729422
