352
i =
  H        -3.3740682483       15.2154355390       16.3301282558
  C        -2.9546289754       14.1801638509       16.5334270035
  H        -3.5746037376       13.5986585767       17.1959265997
  C        -1.6330668157       14.4971481168       17.2575881974
  C        -2.6644794362       13.3983460740       15.1946485939
  C        -1.7880113643       14.7957612713       18.7428296189
  H        -0.8631742203       13.7443188120       17.1240367195
  H        -1.2163212706       15.3821999668       16.7946593249
  H        -2.2040937946       12.3837927302       15.4018098784
  H        -3.5735801021       13.0430227185       14.6750970178
  H        -2.1777190032       14.1122915497       14.5337046593
  C        -2.0319276556       13.6540300156       19.7315797691
  H        -2.6276573810       15.5156900831       18.8321560209
  H        -1.0185037363       15.5075881199       19.1466660078
  C        -2.0603369520       14.0139888310       21.2637039087
  H        -3.1059734317       13.2900000141       19.5749739344
  H        -1.3815058908       12.8008878654       19.4994091402
  C        -1.2123324395       13.1489621052       22.2339794117
  H        -3.1081702374       14.0297750780       21.6463051739
  H        -1.7580381470       15.0890154583       21.3466304293
  C        -0.0001675770       13.9389031371       22.7460355755
  H        -1.8716223428       12.9396497007       23.1079503265
  H        -0.8998833243       12.1796659354       21.8427180119
  C         1.0656227998       13.0649284654       23.4916652604
  H         0.3798419320       14.3653913799       21.7879434351
  H        -0.2243490746       14.8201905027       23.4569172433
  C         1.2974106702       11.7305063919       22.7669600683
  C         0.6544735876       12.3304706782       24.7133015533
  C         2.3889031779       13.8079867131       23.8456122428
  C         1.0285191383       10.6049260681       23.5622220244
  C         1.8827070354       11.2615625480       21.5837253585
  C         0.5948116653       10.9797213397       24.8232655901
  C         0.2551341549       12.9614093432       25.9366060221
  H         2.6184193801       14.3789555945       23.0073302368
  H         2.1537240652       14.4710046707       24.6465548098
  C         3.5405278082       12.9844470268       24.3308793054
  S         1.4386444523        9.0986300465       22.8738023504
  C         1.9839832277        9.9095821939       21.4908216652
  H         2.1393809666       12.0686547459       20.9470808304
  C         0.2299379483       10.3728413686       25.9937485143
  H         0.4296100612       14.0587194810       25.8622965017
  C        -0.1890274652       12.3770154910       27.0373226277
  H         3.7153182833       12.0994182618       23.6850432996
  H         3.2636429255       12.4661249120       25.2106010058
  C         4.8802372835       13.7182339798       24.4498340992
  C         2.5592969478        9.1998478286       20.3084014348
  C        -0.2294597457       11.0562935084       27.1689135686
  H         0.2968894633        9.3289148953       25.9696904307
  C        -0.5976198536       12.8401227213       28.2363401842
  H         5.5386858607       13.3144106598       25.2320831687
  H         4.5923785792       14.6483401492       24.9720693969
  C         5.6102856649       13.9444272921       23.1077377168
  C         2.5064495998        7.8320331225       20.0197167547
  C         2.9705852370       10.0595037095       19.1622804751
  C        -0.6800145607       10.4027510515       28.3844575630
  C        -0.9024612895       11.7530324962       29.0795264012
  S        -0.9343432304       14.3708585986       28.8747636157
  H         6.2493025195       14.8093252302       23.1214062518
  H         4.9008042667       14.3128833167       22.4312244058
  C         6.3457363492       12.6947449107       22.5945046682
  N         2.0718002438        6.8869727134       20.9374791389
  C         2.8576314137        7.3413890076       18.7806167466
  C         3.2066063879        9.5684752481       17.9032062866
  H         2.8926848913       11.1061114961       19.3506999226
  C         0.5014747081        9.5154535842       28.9493279121
  C        -1.9539236543        9.6920436409       28.2060735733
  C        -1.3300251069       12.2319559156       30.3154185166
  C        -1.2770277807       13.6015275667       30.3777819218
  H         7.3737052671       12.5842740947       23.0215094503
  H         5.7137003731       11.8365142860       22.9951165948
  C         6.2824777316       12.6295555481       21.1476245572
  S         2.3611917590        5.4488305597       20.2100120892
  N         2.7583530312        5.9785402854       18.7135099900
  C         3.1815874389        8.1249783600       17.6550163919
  H         3.5737067334       10.2851146935       17.1227822464
  H         0.8946499160        8.9003863558       28.0979425588
  H         0.1998396952        8.7891593674       29.6886316774
  C         1.7949712341       10.2479924119       29.4793212187
  H        -1.7624900146        8.7423714504       27.6871654849
  H        -2.2911684256        9.5379084429       29.2079753153
  C        -3.0518092481       10.4681407408       27.4924515010
  H        -1.5148841924       11.4907870659       31.1190665116
  C        -1.5237923299       14.4016503819       31.6217029107
  H         5.2743407366       12.7570542894       20.7729629846
  H         6.6365509136       11.7177744976       20.7806245339
  C         7.1839706705       13.7545486558       20.5406448108
  C         3.3423823523        7.4968000283       16.3554733900
  H         2.2866014328       10.8883045327       28.7090637913
  H         1.5038489010       10.8927539628       30.2870994479
  C         2.7317486628        9.2354344314       30.1668827023
  H        -2.6804344039       10.8445074111       26.5628231469
  H        -3.3063200206       11.3540643469       27.9363159665
  C        -4.3026234716        9.6579442813       27.3962183276
  C        -1.6868714329       15.7845739762       31.6403722587
  C        -1.8383080398       13.5902987066       32.8414623832
  H         6.7353673083       14.7390654459       20.8461959117
  H         8.1986683917       13.7428097969       20.9651989408
  C         7.3060137956       13.4983298623       19.0178384755
  H         3.1641683039        6.4668581703       16.3584866289
  C         3.6027063688        7.9464502229       15.0591472150
  H         2.8394000729        8.4238081079       29.4330045540
  H         2.2213458827        8.7005676234       31.0361159396
  C         4.1491533149        9.7862535605       30.3925894338
  H        -4.0800628514        8.8336234186       26.6953369530
  H        -4.6203159858        9.1796218365       28.3553859039
  C        -5.5014607983       10.4894020759       26.8034169286
  N        -1.3999520303       16.7154950802       30.6536657546
  C        -1.9737260560       16.3584979564       32.8565208560
  C        -2.0844147789       14.2553387217       34.0890644091
  H        -1.9158206070       12.5274995123       32.7957842047
  H         8.2437438947       13.9931324623       18.6656075920
  H         7.4842711315       12.4204591576       18.7955110529
  H         6.4799029423       13.9692100931       18.4526596242
  S         3.8519056996        9.5449706167       14.6581501945
  C         3.6951782032        6.8867025690       13.9852823876
  H         4.3956509715       10.6601177259       29.8413013993
  H         4.0328634347       10.0724922726       31.4484504651
  C         5.2636910398        8.7962925529       30.2177092556
  H        -5.1304124112       11.2159432336       26.1583444973
  H        -5.7861484229       11.0090933976       27.7294658084
  C        -6.5924957874        9.6702241031       26.1409804254
  S        -1.6642023218       18.1239026035       31.2357888489
  N        -2.2053195261       17.7357143598       32.7318807787
  C        -2.3024658228       15.6699135670       34.0907329670
  H        -2.1564845889       13.6513390524       34.9779612419
  C         4.2189365972        8.8942029493       12.9805133898
  N         4.0696163674        7.5549415655       12.8623125744
  O         3.6301197729        5.6648539804       14.1954206088
  H         6.2530518928        9.1962523163       30.2071587068
  H         5.1222878640        8.2846634099       29.2874728358
  C         5.1693405097        7.6476792382       31.1722281614
  H        -6.2119468694        9.0023766305       25.3319242438
  H        -7.0588212353        9.0546086904       26.8905027372
  C        -7.5473812847       10.5738881381       25.4220742153
  C        -2.7712729885       16.4381522248       35.2418434282
  S         4.7032986429        9.8275727270       11.5624470543
  C         4.0521822859        6.7762587332       11.6728931617
  H         5.6178181599        7.9324728419       32.1455485004
  H         4.0997360725        7.4224077726       31.4059173872
  C         5.9468202963        6.4606683183       30.6195635989
  H        -6.9931091454       10.9399942623       24.6045600760
  H        -7.8587491682       11.3019420592       26.1501169258
  C        -8.7293811133        9.9085584449       24.8073219053
  H        -2.6245550438       17.5147612057       35.1238069439
  C        -3.0327497829       16.0063296113       36.5309694624
  H         4.5558797364        7.1421461226       10.8477452667
  H         4.3665149568        5.7454784456       11.8845394123
  C         2.6426201387        6.6136424517       11.2479874637
  H         6.6752521523        6.8064502658       29.8873405682
  H         5.2874177677        5.7333196951       30.1699918959
  C         6.5439548275        5.6612315459       31.7696099745
  H        -9.1335909952       10.5087680605       24.0466804538
  H        -8.4184689369        9.1015820091       24.1682275439
  C        -9.7064024811        9.6117085618       25.8480623071
  S        -3.3000170605       14.4381600966       37.0752458026
  C        -3.1045417264       17.1204368377       37.5454618027
  H         2.6662692491        6.4827858890       10.2059408104
  H         2.1406457883        5.7657696939       11.7563385806
  H         2.0313872964        7.5428034651       11.5308061690
  H         6.9323508134        4.6740069165       31.4267037635
  H         5.7969138148        5.4612816719       32.5325015619
  H         7.3154827589        6.3387476241       32.1755785696
  H        -9.4059295330        8.6694430703       26.3721126528
  H       -10.7087130747        9.4720765280       25.4617720644
  H        -9.8397775747       10.4711210605       26.5106977308
  C        -3.6911881146       15.2537427825       38.6362025582
  N        -3.4885486631       16.5667174231       38.7171863177
  O        -2.7719437112       18.2814751320       37.3483728593
  S        -4.2943229886       14.3893075537       40.1078229084
  C        -3.4647653191       17.3131784609       39.9984541751
  H        -3.6563774899       18.3461017365       39.7955122812
  H        -4.2237247895       16.9881070896       40.7358408922
  C        -1.9511556821       17.2584670759       40.5102085461
  H        -1.7283970731       16.2533432902       40.8283775976
  H        -1.2173148903       17.5232967399       39.7625664219
  H        -1.8494381329       18.0231254069       41.3039524794
  H         7.6808217323       10.8720202747        3.2177813162
  C         8.4189545989       10.1073907493        3.2829499684
  H         7.9210526027        9.1526494850        3.4582343707
  C         9.1717009562       10.5308284851        4.5756354798
  C         9.3490932646       10.0120600774        2.0151311623
  C         8.3769077974       10.7369783947        5.8615489535
  H        10.0408191831        9.8722810611        4.7786008614
  H         9.6067365521       11.4661428013        4.2800242845
  H        10.0744965993       10.8156021516        1.9413406243
  H         8.6787130850        9.9804968247        1.1561655323
  H         9.9468949930        9.0964229305        2.1103620414
  C         7.3107022389        9.7045725118        6.0762802587
  H         9.0807378354       10.5550999078        6.6015627778
  H         7.8985378758       11.7609405884        5.9618640291
  C         6.7869018853        9.7875392285        7.5457041401
  H         7.6860716409        8.7269070041        5.8321807384
  H         6.5058921311        9.7543853268        5.3462093264
  C         5.5292081210       10.6799993364        7.6950990900
  H         7.4893791144       10.4180984805        8.1206617868
  H         6.7032101325        8.8255594989        8.0933658667
  C         4.1909626007        9.9475476812        7.4343704092
  H         5.5911269737       11.0719459861        8.7321770301
  H         5.7069520494       11.5366837978        7.1004319789
  C         2.8966761194       10.8731321108        7.3837598805
  H         4.0494893106        9.1040914883        8.0919905935
  H         4.2966865311        9.4208588805        6.4722968966
  C         3.2282317731       12.2402911054        6.7018126970
  C         2.4066753316       11.5352426920        8.6340313854
  C         1.7465833458       10.2006306153        6.6118478238
  C         2.9639610557       13.3190954125        7.5537501899
  C         3.7292757229       12.6929767210        5.4192604200
  C         2.4142082479       12.8695118502        8.7286770006
  C         1.8154466290       10.8857835240        9.7426697334
  H         2.1692654730        9.9082215338        5.6291936312
  H         1.4382725331        9.2857941295        7.1397151755
  C         0.4994952137       11.0856842738        6.3564039931
  S         3.2889799786       14.8229376052        6.7780425190
  C         3.8135282670       14.0419528992        5.3312381651
  H         3.9677228157       11.9637542939        4.6974496946
  C         2.0391051364       13.5065392659        9.8543469165
  H         1.7964229022        9.8228556821        9.6945249895
  C         1.4314865942       11.5092063400       10.8772448320
  H         0.8298810575       12.1280648169        6.0255300182
  H        -0.0700359164       11.1356880727        7.2746349518
  C        -0.4764321896       10.4793371230        5.3359964205
  C         4.3265135742       14.7561545170        4.0795672450
  C         1.4805674215       12.8300807539       10.9836552751
  H         2.0439342235       14.5793367032        9.7651864118
  C         1.0246690972       11.1267893884       12.1332151989
  H        -1.4652600532       10.8876178105        5.5989316010
  H        -0.4269469841        9.3388150248        5.4264532178
  C        -0.0467847696       10.8285209294        3.9150379825
  C         4.3381472907       16.1744808121        3.9019366660
  C         4.7079701787       13.9746170936        2.9123423015
  C         1.1576776061       13.4842744870       12.2611171136
  C         0.8050993518       12.2367037087       12.9399537365
  S         0.7695131894        9.6335827392       12.9657605105
  H         1.0035354462       10.8500061018        3.9574101120
  H        -0.4256901810       11.8310370292        3.6558719156
  C        -0.5428501730        9.8052145460        2.8970431069
  N         4.0871398781       17.0498269842        4.9187893021
  C         4.7020516765       16.7646041113        2.7174158266
  C         5.0691256810       14.6162067570        1.7685233091
  H         4.8703454777       12.9423350941        2.9563704751
  C        -0.0728697951       14.4491788997       12.1963458724
  C         2.4427605462       14.2465788262       12.8268899564
  C         0.5205482207       11.8553102380       14.2930337701
  C         0.4435478147       10.4635078685       14.4025620619
  H        -0.0974729016        8.7767036596        2.9428999581
  H        -1.6060540566        9.8454044208        2.9284605140
  C        -0.1558203853       10.2787153884        1.4676044098
  S         4.2665611399       18.5791034714        4.3086375076
  N         4.6627775800       18.1572001330        2.7695906186
  C         4.9192388834       16.0714301897        1.5544858701
  H         5.3876970304       14.0233842666        0.8909639388
  H         0.2635756928       15.3294726846       11.5975980829
  H        -0.4726831346       14.6179101053       13.2543281750
  C        -1.2354312178       13.7671126079       11.4558561177
  H         2.6084753034       15.1595087818       12.2176717445
  H         2.1897783193       14.8033034935       13.7388736425
  C         3.5630785981       13.2953448919       13.2036772124
  H         0.5133713859       12.6096128521       15.0342054795
  C         0.1257413772        9.7382871051       15.6749273533
  H         0.5109445861        9.5919489244        1.0923166651
  H         0.2726568728       11.2679869844        1.5314279079
  C        -1.4826806664       10.2796781242        0.6298797448
  C         5.0992819240       16.7873396885        0.3354914996
  H        -0.9202437607       13.0943777719       10.6994519980
  H        -1.7360641713       13.1644346790       12.1800658528
  C        -2.2354802905       14.8044904154       10.9174357882
  H         3.8978945849       12.9296907862       12.2352782232
  H         3.3624355290       12.4348755658       13.8299199615
  C         4.7966639910       14.0347501337       13.6344613325
  C         0.0426794238        8.3228102593       15.8102491439
  C         0.0404613546       10.4483953500       16.9413165489
  H        -1.8112258706        9.2327579689        0.4107130344
  H        -2.3128915068       10.8353141381        1.1437032765
  C        -1.1060142292       10.9204640981       -0.7528278591
  H         4.8021908978       17.7735483098        0.4041333845
  C         5.2819932619       16.3364187052       -0.9889933383
  H        -1.6690534907       15.2990494672       10.1349494342
  H        -2.5963620153       15.5090571126       11.6306660851
  C        -3.4116349661       14.1422354456       10.2257306572
  H         4.9265434208       14.7476233831       12.8607128930
  H         4.4602428877       14.3983104288       14.5570733258
  C         6.0233510572       13.2000012465       13.8046125640
  N         0.3142155972        7.3635308348       14.8230600124
  C        -0.2150210794        7.6563963004       17.0022220759
  C        -0.1259664953        9.8443725371       18.2218338862
  H         0.3924240998       11.4882968407       17.0239908233
  H        -0.5485785215       11.8806245741       -0.6117693439
  H        -1.9944849449       10.9967987567       -1.4801310649
  H        -0.4928809744       10.2098188766       -1.2067705561
  S         5.4796516795       14.7143552433       -1.6303014539
  C         5.5075773119       17.4220996658       -2.0193802914
  H        -3.7392412075       14.9269466328        9.5002074771
  H        -3.1348145189       13.3021951800        9.5980854409
  C        -4.5723229911       13.6880654922       11.1512654456
  H         6.5124757822       12.9388689399       12.8712419803
  H         5.7937955743       12.2264298505       14.2692716419
  C         7.0133894370       13.7434876459       14.7644926853
  S         0.1050005352        5.8932388107       15.3409387230
  N        -0.3808298537        6.3091972431       16.8489491010
  C        -0.3746155110        8.3894940684       18.2504284824
  H        -0.0443122683       10.4010554135       19.1951769881
  C         5.7122082951       15.4579223599       -3.2289888021
  N         5.8436837291       16.8077249212       -3.1820214905
  O         5.6628011291       18.5989623569       -1.7548971755
  H        -4.2483903289       12.9192700143       11.8324893100
  H        -4.8891030741       14.5779095018       11.7003117605
  C        -5.7656317822       13.1139755585       10.2733414358
  H         6.4365940814       13.9603597792       15.6635997489
  H         7.8121591643       13.0560730694       14.9166214253
  C         7.6422013084       15.0012833217       14.2426829785
  C        -0.6742487711        7.5681584130       19.4070052595
  S         5.9164734377       14.6024327867       -4.7597301344
  C         6.0356364906       17.6668126164       -4.3774010984
  H        -5.2874768602       12.5673617005        9.4922690042
  H        -6.3828541959       12.3690915083       10.8157725919
  C        -6.6100475022       14.2795910093        9.7012960227
  H         7.1604032269       15.3057714451       13.3127336781
  H         8.7158510027       14.8115327454       13.9780150760
  C         7.4709744405       16.1755454450       15.2011129798
  H        -0.2650869283        6.6203396376       19.4207645322
  C        -1.2616717246        7.9403569163       20.5531670856
  H         6.6087996043       17.1078168267       -5.0628052091
  H         6.6449987879       18.5435302243       -4.1097844804
  C         4.7078509290       18.0159026145       -5.0477180009
  H        -6.0987675171       14.9403650805        9.1030182087
  H        -7.0274983262       14.7971264762       10.5206970590
  C        -7.7048883970       13.6493153851        8.8605213907
  H         6.4847312160       16.5930019505       15.1888048028
  H         7.6374339702       15.8892208941       16.2192249522
  C         8.4878945939       17.2976881169       14.9081581955
  S        -2.0754186929        9.4028472806       20.9788898081
  C        -1.3266385169        6.8544698542       21.5909933201
  H         4.2619852438       17.1213052352       -5.5855260435
  H         4.8808057158       18.7962538259       -5.7233086758
  H         3.9176451710       18.4472065654       -4.4635297751
  H        -7.4723076524       12.6521788536        8.6327339303
  H        -8.7116638001       13.7990310725        9.3130262142
  H        -7.6795613817       14.0767029891        7.8372532630
  H         9.4168290352       16.8947795254       14.6875360319
  H         8.1470152503       17.9774830513       14.0755555051
  H         8.6079675118       17.8652674439       15.7771001854
  C        -2.3128441056        8.5800378185       22.5734595673
  N        -2.0275366825        7.2790268722       22.6740595577
  O        -0.8233170529        5.7399431794       21.3904596572
  S        -3.3275392495        9.2236534751       23.9083747335
  C        -2.1361641504        6.4984893037       23.8926190274
  H        -1.9694812721        5.4338622875       23.6406349234
  H        -3.1192928831        6.7212155126       24.3388412292
  C        -0.8935989352        6.8860925128       24.7810669837
  H        -0.0503191979        7.1099510788       24.1748870717
  H        -0.7067388891        6.0454780102       25.4138493973
  H        -1.0782421957        7.7168553308       25.3614518928
