352
i =
  H        -3.7985360136       14.4930622921       15.8965740588
  C        -3.1988820181       13.5799039687       16.0257545659
  H        -3.9982895739       12.9062276732       16.4118936666
  C        -2.1315551808       13.6395619587       17.1290271436
  C        -2.5310910000       13.4049775351       14.7165185808
  C        -2.8224533706       13.5720318936       18.4497382926
  H        -1.3845042043       12.9018964811       17.0259976259
  H        -1.3842217854       14.4867291014       17.0874285746
  H        -2.8525719270       14.1667517285       13.9693912972
  H        -1.4293317404       13.3218627258       14.7794198095
  H        -2.6544140076       12.4800496387       14.0684621821
  C        -1.7141340135       13.4094228021       19.6383445243
  H        -3.5301290319       12.7579750248       18.6983999008
  H        -3.3817065474       14.5053968344       18.7552280913
  C        -2.4056117776       13.4915594567       21.0481676377
  H        -1.1626264806       12.4217765116       19.2987675187
  H        -0.9409487564       14.3162166783       19.5560832848
  C        -1.4556738877       13.0196436771       22.0890380074
  H        -3.1946137429       12.7018614558       21.0102407304
  H        -2.9662009451       14.4875123101       21.2024248778
  C        -0.2249933058       13.8538678032       22.3956606481
  H        -1.8924929610       12.9080036441       23.0444477882
  H        -1.0421325382       12.0121132458       21.7787524584
  C         0.8851120861       13.2179016121       23.1881007072
  H         0.0382051984       14.4203177099       21.5093784406
  H        -0.5334275242       14.6720865898       23.1297954554
  C         1.3666225872       11.8928974162       22.5387444791
  C         0.5886375744       12.5365018768       24.5536315189
  C         2.1948810437       14.1358381881       23.2740882749
  C         1.1732395908       10.8496396342       23.4201439683
  C         1.8269137071       11.4991023486       21.2417133533
  C         0.7163722389       11.1725070586       24.6659411696
  C        -0.0088281805       13.1441707338       25.7058166854
  H         2.0638743800       14.5823917521       22.2735357354
  H         1.9501223331       14.9660205773       24.0121880086
  C         3.5841517820       13.4945326055       23.6567525638
  S         1.6558362324        9.3970987292       22.7134856159
  C         2.1081733866       10.1611893312       21.2420220007
  H         2.0074647188       12.4008108583       20.5019459957
  C         0.3667730123       10.5771869029       25.8245681670
  H        -0.1627970398       14.1848358715       25.5649492631
  C        -0.2771084329       12.5206947914       26.8396784269
  H         3.8111338632       12.6791403969       22.8752300397
  H         3.6280459909       12.9336718161       24.6208982899
  C         4.7904001369       14.4221505135       23.7015305547
  C         2.4447799974        9.3538662517       19.9885286973
  C        -0.1444773701       11.1821841658       26.9893484804
  H         0.5374348073        9.4689768967       25.8644089316
  C        -0.8050660728       12.8287522241       28.0757846278
  H         5.4068458476       14.0079968879       24.4200443426
  H         4.5575931739       15.3774838428       24.0473149134
  C         5.5198534760       14.4564247871       22.3467503794
  C         2.4283704493        7.9709123213       19.8445871446
  C         2.8188568534       10.0645219706       18.7756590887
  C        -0.5492144182       10.4544588645       28.2238702954
  C        -0.8398443775       11.7779356866       28.9730562470
  S        -1.3700896139       14.2609041958       28.7286996097
  H         6.1482679555       15.2478436976       22.1577009976
  H         4.8108439796       14.6803548207       21.6099007055
  C         6.4306672630       13.2118070606       22.0842685537
  N         1.9908249863        7.1150333939       20.8251242822
  C         2.5338594938        7.3968566317       18.7111893799
  C         2.9595685035        9.4281861070       17.4959849121
  H         2.9782471720       11.0781930361       18.8390754756
  C         0.5879908362        9.4644956226       28.8033120821
  C        -1.8654019928        9.6761360428       28.0154870161
  C        -1.2523937849       12.1562334254       30.2335640950
  C        -1.6388314261       13.4278484205       30.2431329420
  H         6.9318566178       12.9225833203       22.9557881282
  H         5.8179194818       12.4240206518       21.8096233156
  C         7.4337578457       13.4357252954       20.9885620864
  S         2.0221730084        5.6130543384       20.2799540951
  N         2.3583252707        5.8965506504       18.7648169783
  C         2.8219235619        7.9341485174       17.4273740482
  H         3.1387972848       10.1166927662       16.6792079966
  H         1.0004824091        8.9024385102       28.0099938223
  H         0.2710727396        8.8775517857       29.6004771856
  C         1.7619909141       10.2415987294       29.3665126226
  H        -1.6610117038        8.9059856560       27.3702332122
  H        -2.1371485029        9.0657088970       28.7870937585
  C        -3.0935298651       10.5258732643       27.4733247175
  H        -1.1326068679       11.3636718302       30.9244999406
  C        -1.9171710890       14.2359110636       31.4674324500
  H         8.1999666907       12.7170713782       21.0808698198
  H         7.9130649582       14.4646362240       21.0540816800
  C         6.7074863190       13.3953376147       19.6232052313
  C         3.0238352255        7.1234993164       16.3085876553
  H         2.2372354695       10.7186698398       28.5628365585
  H         1.4832591805       10.9562955601       30.0656702537
  C         2.8545762826        9.2977927042       29.8348535472
  H        -2.7963368110       11.1210152516       26.6331349792
  H        -3.2467124860       11.1422325988       28.2407433275
  C        -4.3776728374        9.7544219708       27.1974346050
  C        -1.9385608390       15.6894144088       31.6309476732
  C        -1.9481112886       13.4694148132       32.7120886626
  H         5.9483354965       12.6560214791       19.6983720604
  H         6.3690044894       14.3692907483       19.2662505770
  C         7.5280936122       13.2819513270       18.3107351027
  H         2.7803705235        6.0703419865       16.3627808435
  C         3.3193284748        7.4616632132       14.9870601818
  H         3.2359670714        8.9326864038       28.9369284553
  H         2.4612836875        8.5196410738       30.4147457684
  C         3.9951439905        9.9673926935       30.5997782456
  H        -4.3175020502        9.0105574919       26.4944979147
  H        -4.6482844097        9.2833722552       28.1224258888
  C        -5.5473022521       10.6212936423       26.7627899997
  N        -1.6432333420       16.5195916209       30.5927761615
  C        -2.1636673046       16.2999507657       32.8003838870
  C        -2.0429408743       14.0937744347       33.9785635428
  H        -1.9732936660       12.4341174216       32.6860647100
  H         6.8509945487       13.3638728260       17.5117745058
  H         8.2008728298       14.1499538802       18.1965518154
  H         8.2473446653       12.3947060305       18.2673196374
  S         3.6572464594        9.0448243452       14.3708171063
  C         3.5367118118        6.3544935588       14.0361763274
  H         4.0528654415       11.0993047834       30.2997788226
  H         3.6919947554       10.1327453866       31.6988272365
  C         5.3015813477        9.2653697964       30.5542049258
  H        -5.2245619724       11.3124679769       26.0542117904
  H        -6.0910195486       11.0559801320       27.6071223616
  C        -6.7541105842        9.8512565588       26.0438240387
  S        -1.7930703428       17.9944330447       31.1359168280
  N        -2.1927519815       17.7296303547       32.6879856526
  C        -2.3012731466       15.5908518538       34.0776337153
  H        -2.1308092403       13.5399379791       34.7334628204
  C         3.9309607435        8.2286759351       12.8161290967
  N         3.9259774444        6.8633845244       12.8531930759
  O         3.6849430314        5.1709769974       14.2650487656
  H         6.2044153718        9.9423369237       30.8338195037
  H         5.4596650618        9.1276860400       29.3921361861
  C         5.3515546608        7.8590596647       31.2008876243
  H        -6.3452349509        9.0403702718       25.4166625699
  H        -7.4348457328        9.3725881310       26.6909136291
  C        -7.4909340637       10.7036000777       25.0417304923
  C        -2.6508933656       16.3658880389       35.2109983961
  S         4.2928629841        9.0545256509       11.2648216649
  C         3.9596852974        6.1341379328       11.5514807678
  H         5.6092579165        7.9059773706       32.3834059351
  H         4.3980176670        7.3730252750       31.0624345087
  C         6.4783380584        6.9401406925       30.6005253745
  H        -6.8649059442       10.7585560829       24.2633824400
  H        -7.5606142082       11.6806900207       25.4660636019
  C        -8.7316637688       10.0478801267       24.5753798719
  H        -2.5710719269       17.4371152866       35.2044177364
  C        -3.1641196419       15.8333835680       36.4110207537
  H         4.7184326678        6.6719744570       10.9123891511
  H         4.4612381841        5.1463981065       11.8837487105
  C         2.5520428987        6.0457631155       10.9676219433
  H         7.4430805461        7.2821433185       30.6137761103
  H         6.2963219369        6.6768909903       29.6045412560
  C         6.3341163312        5.5788056714       31.3656535984
  H        -9.1273560321       10.4385080103       23.5575550673
  H        -8.5327622898        8.9562696768       24.4039801233
  C        -9.8541920812       10.1273107122       25.6391648919
  S        -3.6604985194       14.2558272127       36.9042810119
  C        -3.3514498129       16.8358951882       37.5715568390
  H         1.9774878616        5.2742668892       11.4600311850
  H         2.0341345101        6.9818271855       10.8802552270
  H         2.6063744240        5.6739650751        9.9278266036
  H         5.3072996504        5.1226339405       31.2540731667
  H         6.5743790361        5.6039387300       32.4709178741
  H         6.8418412387        4.8138424234       30.6403275225
  H        -9.5256115628        9.6187964922       26.5392307695
  H       -10.7564112560        9.6737996306       25.2129600898
  H       -10.2465509969       11.1461572269       25.8924682153
  C        -4.1715614299       14.9160879828       38.5309156377
  N        -4.0127894429       16.2950875722       38.5928778328
  O        -2.9821029845       17.9659472150       37.5070423355
  S        -4.9829596928       13.9422987666       39.7725654273
  C        -4.2421623366       16.9642968067       39.9516909114
  H        -4.3164030041       18.0108057451       39.6827498534
  H        -5.2053748892       16.5889757563       40.3308545584
  C        -3.0256701605       16.8055306443       40.8498592629
  H        -1.9758460815       16.6789232696       40.4771144199
  H        -2.6095427367       17.6682750990       41.4550307758
  H        -3.1891859667       16.0668040723       41.6126197907
  H         7.1849436011       10.6252305201        3.8570281024
  C         8.0768673880        9.9058097314        3.7277477346
  H         7.6343556404        8.8539820418        3.6744646696
  C         8.9961043011       10.3597159921        4.9395605115
  C         8.7124072875       10.1436410587        2.3919132454
  C         8.2920258489       10.4931883521        6.2260288791
  H         9.7499238073        9.6171156039        5.1101514491
  H         9.3600901245       11.3492784401        4.7607589291
  H         7.9615442375       10.3653912532        1.6669527098
  H         9.1523648149        9.1525349342        1.9863685292
  H         9.3653436760       11.0008834361        2.2596987603
  C         7.4537462888        9.2769782490        6.5543405598
  H         9.0991758429       10.7944316248        6.9739898565
  H         7.6485603538       11.3502247324        6.0846269688
  C         6.7438723148        9.5469567445        7.9119710391
  H         8.1272627366        8.4348776960        6.7100937677
  H         6.5095588242        9.0708984468        5.9062163343
  C         5.4648605411       10.3463919224        7.7125451478
  H         7.2859186886        9.7886802941        8.7970082119
  H         6.4766438781        8.5333262856        8.2186245244
  C         4.2419230433        9.6770807215        7.3288720657
  H         5.3732513625       10.7592203761        8.6904556074
  H         5.7515333155       11.1789737277        7.0531532526
  C         2.8987973279       10.5259548794        7.0346455967
  H         3.8877914134        8.9404112474        8.1814590318
  H         4.3807706011        8.9606112997        6.5681501565
  C         3.3610283079       11.8162461473        6.3546416084
  C         2.4207666734       11.2000662587        8.2704015510
  C         1.7998578083        9.7894668441        6.2823541885
  C         3.0605890824       12.9234333023        7.1145018479
  C         3.9334022609       12.1996726148        5.1225136914
  C         2.5112147325       12.5538717401        8.3430835089
  C         1.9987846191       10.5254545053        9.4202653786
  H         2.2666434513        9.3055051807        5.3853258211
  H         1.3179902722        8.9279272187        6.8725497720
  C         0.6237463688       10.7596126349        5.7480760673
  S         3.5951119825       14.4057177584        6.4578279621
  C         4.1439120657       13.5492255962        5.1031761289
  H         4.0420964869       11.4746973207        4.2979912851
  C         2.0949150048       13.1546344185        9.4657251594
  H         2.0596147155        9.4048073957        9.3976790073
  C         1.5210579764       11.1394360168       10.4827623877
  H         1.0368139064       11.6142135194        5.2450617746
  H         0.0586067212       11.0264686202        6.6684579819
  C        -0.3234587069       10.0986380516        4.7288221967
  C         4.4850528854       14.2779693401        3.7593403713
  C         1.5891474209       12.5058239532       10.5775339138
  H         2.0276084080       14.2348705581        9.4564690445
  C         1.1508721947       10.7538672905       11.7702040415
  H        -1.1175019449       10.6688188989        4.6240859180
  H        -0.5994387994        9.2703721444        5.3743680356
  C         0.3566609247        9.7859413443        3.4079673316
  C         4.5344520314       15.6756706624        3.5617578287
  C         4.7833139076       13.4896846111        2.6027137309
  C         1.1185922255       13.1828734586       11.8559432176
  C         0.8700667865       11.8647924276       12.5827059793
  S         0.8282006812        9.2237956176       12.5087109138
  H         1.0173811151        9.0097159303        3.4882372687
  H         1.0586216580       10.6579796145        3.3097783966
  C        -0.6304822917        9.7991836619        2.2390554104
  N         4.4137131258       16.6288143910        4.5346706707
  C         4.6964786929       16.2244203978        2.3579884439
  C         5.0377447994       14.1432737213        1.3792111229
  H         4.9435406045       12.5103017507        2.6384772126
  C        -0.1118161833       14.0352495155       11.5717375547
  C         2.2058844690       14.0833358228       12.5162579635
  C         0.5056401240       11.4177178051       13.8686269171
  C         0.3693479570       10.1043931903       13.9999433775
  H        -1.4921400102        9.2074050827        2.4685749642
  H        -0.9876291700       10.7880030884        2.0125283431
  C        -0.0072456525        9.1540103204        0.8956653349
  S         4.2643811712       18.1041809684        3.8501710208
  N         4.4828224148       17.6699324554        2.3018891945
  C         4.9577074895       15.5494689342        1.1297029921
  H         5.2874248164       13.5259022226        0.6037294908
  H        -0.0424320430       14.7700500236       10.9591859949
  H        -0.3292629969       14.6214759978       12.4479998179
  C        -1.3687225042       13.1716303343       11.2253711135
  H         2.6492828747       14.7551875513       11.7968762219
  H         1.7272054751       14.7165536533       13.1892987060
  C         3.2791961845       13.2119855564       13.3586084038
  H         0.3506048758       12.1432535628       14.5984356011
  C        -0.0105198920        9.3365813733       15.2893184856
  H        -0.0184249884        8.0455237224        1.0703075176
  H         0.9774807267        9.7047971724        0.6851770891
  C        -0.8658272657        9.4558989907       -0.3243965895
  C         5.1568653989       16.2303736810       -0.0460778055
  H        -1.1777729800       12.3767152710       10.4292476637
  H        -1.7795975711       12.5968282492       12.0503749444
  C        -2.5885072368       14.0236446462       10.6336663607
  H         3.5830613496       12.3699273845       12.6380389493
  H         2.8326952348       12.6607900781       14.1824189894
  C         4.4113787012       14.0329166114       13.6394267605
  C        -0.0846186739        7.9192440124       15.4367851590
  C        -0.0962471882       10.1013052690       16.4722786043
  H        -0.4079992068        8.9018990426       -1.1625918086
  H        -1.8562648617        9.0477921590       -0.1525977070
  C        -1.0205051009       10.9507345637       -0.7213268605
  H         5.1151911807       17.3580091022        0.0053955453
  C         5.4317636935       15.9480956962       -1.3835685620
  H        -2.1818255170       14.5748418667        9.8935641816
  H        -2.8968489518       14.6355299316       11.3733505974
  C        -3.6786979213       13.3257391617       10.0310984470
  H         4.9514586158       14.4860389828       12.8397667631
  H         4.0897711387       14.9620660713       14.1273844562
  C         5.5176136661       13.1813114427       14.4392797220
  N         0.0524325685        7.0615962488       14.3741142731
  C        -0.3366316483        7.3729444823       16.5993149800
  C        -0.3541771330        9.5065079729       17.7235302748
  H         0.0574971737       11.1692088212       16.4951331052
  H        -2.0082888886       11.2189622177       -0.4827621592
  H        -0.5182593870       11.2035730679       -1.6760815324
  H        -0.3443738433       11.4575186932       -0.0550798141
  S         5.7009377514       14.3839498358       -2.0574133593
  C         5.5251727694       17.0096037979       -2.4894958749
  H        -3.4966357765       12.7112447709        9.0811600911
  H        -4.1448201274       12.6331466466       10.6892419379
  C        -4.9384998485       14.2470035758        9.7114562830
  H         5.4851863846       12.1481237777       13.9873733788
  H         5.1878131381       13.1103047602       15.4281261517
  C         6.8996457346       13.8734672601       14.2117931898
  S         0.0882400240        5.5383812152       15.0019460907
  N        -0.2952615130        5.8679521513       16.5119452017
  C        -0.5597772564        8.0589126843       17.8400283913
  H        -0.4404920438       10.1590557846       18.5249266535
  C         5.8384179923       15.0903921796       -3.6651211248
  N         5.8338161520       16.4668772633       -3.6650722587
  O         5.5178887740       18.2307207611       -2.2741831132
  H        -5.3457956427       15.0274496083       10.4682296774
  H        -4.4627531954       14.8842969300        9.0507429117
  C        -5.9761193640       13.3530474914        8.9193945523
  H         7.7058391688       13.1782425063       14.2719140141
  H         6.9996911103       14.2026808247       13.1919529866
  C         7.0669484471       15.0091184765       15.2222965349
  C        -0.8483155431        7.4335876147       19.0512126527
  S         6.1505146762       14.2613469850       -5.1399065905
  C         5.8174481168       17.2541482294       -4.8656491357
  H        -5.7122722301       13.2581482613        7.8789371669
  H        -5.8562619024       12.3141639972        9.1947132011
  C        -7.4083119014       13.6967085447        9.1974523995
  H         7.9214888736       14.8830741098       15.8485286269
  H         6.1782354400       15.2009412439       15.8408708519
  C         7.3079740756       16.3001532949       14.5625603197
  H        -0.3942829995        6.5061760998       19.2030763835
  C        -1.4061355935        7.9717125677       20.1748437576
  H         6.6591697626       17.0206469725       -5.5786668983
  H         6.1320269469       18.1407135675       -4.5252451791
  C         4.3994067534       17.2460998310       -5.5365761537
  H        -8.2115577886       13.1997713261        8.6629644901
  H        -7.5994421811       14.7941866956        8.7094164724
  C        -7.8837995587       13.5149412979       10.6496423799
  H         8.3432656107       16.2828868781       13.9954591718
  H         6.3971872642       16.4197240577       14.0480594333
  C         7.3916118790       17.6137510360       15.5089273832
  S        -1.9748099584        9.5128455996       20.5937880114
  C        -1.5688752914        6.9330420697       21.3024837444
  H         3.7372575813       17.6955796456       -4.8866250940
  H         3.9672956186       16.3614826219       -5.8226790210
  H         4.4593908466       17.7326741337       -6.4821518302
  H        -8.1782808252       14.5016367287       11.1551462766
  H        -8.6924305002       12.8448142136       10.7968314677
  H        -7.1690003384       13.1189636204       11.2418619069
  H         7.2772774101       17.2626767548       16.6202723921
  H         8.2756325415       18.0809970411       15.1525446355
  H         6.5294072421       18.2530213160       15.2788995360
  C        -2.3643846278        8.8305547719       22.2087954541
  N        -2.1642522089        7.5252183840       22.3406662878
  O        -1.1910909153        5.7635152933       21.2094109096
  S        -2.7684618070        9.9367304960       23.5542667361
  C        -2.2677224125        6.8914739194       23.6054649530
  H        -2.0410671699        5.7825316934       23.4788782578
  H        -3.2477116038        7.0958652360       24.0714519248
  C        -1.0824159155        7.2364801385       24.5245280437
  H        -0.5479729255        6.3546935793       24.7876934391
  H        -1.3183360630        7.6561996524       25.4493160562
  H        -0.3606955435        8.0001751379       23.9517099781
