352
i =
  H        -3.7231751210       13.1143402118       16.7246082198
  C        -2.6708634643       12.9815633023       16.5668606962
  H        -2.4680818622       11.9456667156       16.4240215740
  C        -1.9060582249       13.6660336903       17.6608166672
  C        -2.4159776418       13.5825443093       15.1618637972
  C        -2.5520936978       13.4146107113       19.0312923451
  H        -0.8982874607       13.1771631727       17.5951635268
  H        -1.8657853542       14.6999322515       17.4216452607
  H        -2.5711656777       12.7227820898       14.4996535596
  H        -3.0898471746       14.3566086123       14.9016005486
  H        -1.4198180158       13.9366580338       15.0453354050
  C        -1.5999704240       13.2711904069       20.2059241559
  H        -3.0974599431       12.3926627861       18.9420497890
  H        -3.2888983564       14.1906150557       19.2451213543
  C        -2.4039107891       13.0869934413       21.5010687626
  H        -1.1072890808       12.3796635724       19.9984425998
  H        -0.8301313890       14.0495956841       20.2121311505
  C        -1.4722393678       12.5771033012       22.5484513101
  H        -3.2035793537       12.4032961185       21.3055347748
  H        -2.7497453901       14.0477026499       21.7422887934
  C        -0.3256908351       13.5592427346       22.9148664486
  H        -1.9417710592       12.3507828116       23.5315817022
  H        -1.1003461434       11.6450963644       22.2558903585
  C         0.9124483775       12.8249691310       23.5443844336
  H         0.0772850550       14.0740520956       22.0724890339
  H        -0.6131551213       14.2999543236       23.6627721607
  C         1.3227683023       11.4662661208       22.9043168768
  C         0.5692479741       12.0995100498       24.8089072754
  C         2.1288435157       13.7117623765       23.6922386995
  C         1.1401568949       10.3637120872       23.7106387758
  C         1.8707035809       11.0725982981       21.6318880854
  C         0.5918316915       10.7582835772       24.9227471248
  C         0.0983597033       12.6755524742       25.9553931650
  H         2.2794176795       13.9176507360       22.6406708837
  H         1.7019266640       14.4444330978       24.3550457080
  C         3.3282028252       13.0365031941       24.3322786027
  S         1.6072240673        8.8287391305       22.9606282358
  C         2.0739055067        9.7228197990       21.5055890063
  H         2.1417396871       11.8937552721       20.9322252660
  C         0.2220350673       10.0784024858       26.0824275889
  H        -0.1359933484       13.7492249381       25.9242298436
  C        -0.1666763295       12.0311351247       27.1293712060
  H         3.7227537816       12.3766681584       23.6019873893
  H         3.1091340247       12.4793638434       25.2421456858
  C         4.5141045873       14.0791186771       24.5294712309
  C         2.6395544509        9.0425463392       20.2662403143
  C        -0.1803006854       10.7042104364       27.2407566208
  H         0.2401075877        8.9270189850       26.0838904740
  C        -0.6396941703       12.4137769182       28.2758691127
  H         5.3179480363       13.3665675914       24.7932289066
  H         4.5415772067       14.8214940186       25.3270393562
  C         5.0289204594       14.7997619464       23.2073125751
  C         2.6284629046        7.7071848218       19.9029263001
  C         3.0026478815        9.9158836372       19.0950679240
  C        -0.7036255572        9.9924772672       28.4481676960
  C        -0.8586889308       11.3249329112       29.1789861393
  S        -0.9555797227       13.9400215958       29.0410954564
  H         5.7400096293       15.5866196029       23.4680823456
  H         4.2051247215       15.2993849637       22.6921637461
  C         5.7846355017       13.8860940393       22.1970745090
  N         2.1207230770        6.7163443615       20.8151961428
  C         3.0596406904        7.1862546374       18.6809321643
  C         3.2670327205        9.4086776000       17.7865757280
  H         2.9947149519       11.0117250187       19.1793162140
  C         0.2568285953        9.0731299845       29.2432281540
  C        -2.0938837450        9.3029688757       28.2424734122
  C        -1.2170681151       11.8362714563       30.4417976681
  C        -1.3288859670       13.2289037294       30.5127819218
  H         6.7330797673       14.4812802326       21.9436198023
  H         6.1453161748       12.9162092104       22.6164310854
  C         5.1319867061       13.7638556215       20.8738627122
  S         2.2362902966        5.2759995810       20.1418406108
  N         2.9181279472        5.7647727729       18.7293301297
  C         3.2755332659        7.9948376025       17.5495393681
  H         3.3820762437       10.1516817910       16.9786994155
  H         0.2635589728        8.0951326029       28.7654389692
  H        -0.2792263689        9.0060789184       30.1990424845
  C         1.5569964580        9.7554021170       29.5953906883
  H        -1.8719531110        8.4809966053       27.4844449645
  H        -2.3739795777        8.9078558852       29.2833908124
  C        -3.2434153645       10.1839006622       27.6570881221
  H        -1.4817744763       11.1906063195       31.2883506606
  C        -1.5748624244       14.0001536867       31.7595637900
  H         5.4011869100       14.7000148483       20.5658945884
  H         4.0658693422       13.5825678006       20.9552456571
  C         5.8563252130       12.7743689160       19.9853735724
  C         3.5332389530        7.3545642096       16.3016588655
  H         2.0645658210       10.1609599058       28.7653620357
  H         1.3216650761       10.5341660236       30.1967840928
  C         2.4928044979        8.8317286486       30.3873068477
  H        -2.7834448443       10.5632271405       26.7464221034
  H        -3.5509583031       10.9807831911       28.3481515186
  C        -4.4032643170        9.3832978784       27.2546149451
  C        -1.6801119508       15.4419623864       31.8857874711
  C        -1.9612266214       13.2930165614       33.0017894744
  H         6.7980171073       12.6272890295       20.5443830791
  H         5.4245774262       11.7994750989       20.0363909270
  C         6.0171834110       13.3968357233       18.6813638774
  H         3.5587086809        6.2983224401       16.3570502922
  C         3.8063149652        7.7930332206       15.0051792033
  H         2.8335245861        8.0110160148       29.7761504828
  H         1.9396526819        8.5035841984       31.2959569622
  C         3.7906211281        9.6138033152       30.7592677401
  H        -3.9981139835        8.8142787606       26.4668978215
  H        -4.6996795907        8.6255941734       27.9725020049
  C        -5.4761793608       10.2904912989       26.8319071113
  N        -1.3670599905       16.2593486748       30.9018244122
  C        -1.9986497869       16.0922962771       33.0698456562
  C        -2.2709981936       13.9531416529       34.1571807704
  H        -1.9143364267       12.1949330001       33.0650103505
  H         6.4992672820       14.3744360428       18.6499568038
  H         6.8170117564       12.9034409714       18.1294898800
  H         5.0724086371       13.3636213321       18.0021759330
  S         4.0764715954        9.3663241004       14.3867326102
  C         3.9227695769        6.7082340123       14.0120131987
  H         3.8219742134       10.5751990797       30.2236989136
  H         3.7007848575        9.8758922795       31.7970497340
  C         5.0724787028        8.9684378876       30.6506520997
  H        -5.0580819036       11.0655283616       26.2876975492
  H        -5.9244810954       10.6367251295       27.7475620293
  C        -6.5411436426        9.5446252986       25.9610945205
  S        -1.6535422647       17.7655338857       31.3876706275
  N        -2.0035502301       17.4332968023       32.9644093452
  C        -2.3727870739       15.4409892320       34.2438981879
  H        -2.3921260789       13.2925546885       35.0010474794
  C         4.3188615169        8.5863883501       12.8125637881
  N         4.1608207782        7.2586074917       12.8368058073
  O         3.6960509406        5.5214102008       14.2432705328
  H         5.8154549708        9.7773060400       30.7088928798
  H         5.0917859167        8.3891124183       29.7458760566
  C         5.3058513456        7.8542409708       31.6357146224
  H        -6.0644274274        8.9928105911       25.1599291303
  H        -7.1014605148        8.8192556357       26.5849708856
  C        -7.4954739387       10.5879385222       25.2979037026
  C        -2.7580655889       16.2565126284       35.3851130307
  S         4.9009499676        9.3976254124       11.4539961869
  C         4.2131408757        6.4049118715       11.6554611562
  H         5.6376860411        8.2811404347       32.5729480442
  H         4.4245868185        7.2098730351       31.8638463662
  C         6.3945017444        6.8731475137       31.1237957714
  H        -7.1265302182       11.0417249365       24.3831901232
  H        -7.7252992237       11.4177765487       26.0427032138
  C        -8.7179402948        9.8146545248       24.8392282048
  H        -2.5668182056       17.3135405631       35.2682491254
  C        -3.1480260448       15.9525756459       36.6720779356
  H         5.1896939696        6.6373348315       11.1551978270
  H         4.2009555750        5.4186800616       12.0580565891
  C         2.9745834048        6.5855384419       10.8465303703
  H         7.3542170021        7.4001813773       31.3089325773
  H         6.2958033418        6.6403346582       30.0394971259
  C         6.3165117831        5.4743502753       31.8499638431
  H        -9.0394619889       10.3096225264       23.9752081959
  H        -8.3991632616        8.8696130497       24.3558894506
  C        -9.8249170864        9.6814136285       25.9590658270
  S        -3.4390176212       14.5049947010       37.3631547348
  C        -3.1613093520       17.1306730667       37.6203973061
  H         2.4692574122        5.6174843246       10.6869685118
  H         2.2996605969        7.1365289774       11.4696347786
  H         3.0261086300        7.0486321320        9.8666982440
  H         5.3162412659        5.0391101503       31.6857227246
  H         6.5957320858        5.5418715943       32.9024273637
  H         6.9741355157        4.7878099270       31.4046965471
  H        -9.5485699189       10.4591231986       26.6601662033
  H        -9.7041103332        8.7212602475       26.5354176882
  H       -10.8148074473        9.6258082815       25.4882229937
  C        -3.6969303497       15.3783701613       38.8502083964
  N        -3.5837076993       16.7209289614       38.8059433413
  O        -2.9154704468       18.2893275437       37.3176834169
  S        -4.4566210089       14.6634782108       40.2658684449
  C        -3.6820148303       17.6095907911       39.9540413361
  H        -3.9228892899       18.6471328221       39.6643381090
  H        -4.4687188402       17.3455617989       40.6484117281
  C        -2.3752633333       17.6535878449       40.7232229975
  H        -1.8466125425       18.5997613762       40.6304422471
  H        -2.5475473318       17.4974538215       41.7460502689
  H        -1.8124975792       16.7550858908       40.3843609511
  H         7.2772610723       11.3779859548        4.1257161211
  C         7.8103584233       10.4133013795        4.0977126998
  H         6.9302231204        9.8026145670        4.2163823456
  C         8.8510908592       10.3382412041        5.2679459928
  C         8.5676103525       10.1495300252        2.7679789342
  C         8.1963173570       10.5622507299        6.6551123975
  H         9.3709245967        9.3664761516        5.3151504110
  H         9.6175521043       11.1385256261        5.1996452723
  H         9.3820822747       10.8365474026        2.5845556509
  H         7.8690586218       10.3328239345        1.9510743051
  H         8.8684831700        9.0765361663        2.6014433655
  C         7.3534823103        9.3538505846        7.0790032646
  H         9.0257704677       10.7011486320        7.4092367217
  H         7.6519333208       11.4310874315        6.7171217354
  C         6.4906765798        9.6053448238        8.2752114962
  H         8.0494342831        8.5003379263        7.3831267722
  H         6.7638307679        9.0262484118        6.2362905414
  C         5.3119337389       10.4965301119        8.0865236499
  H         7.0039022538        9.9443060382        9.1707801046
  H         6.1284945226        8.6370400011        8.5729525958
  C         4.0582514009        9.8433812620        7.4652500112
  H         5.1324355186       10.9774284964        9.0427683484
  H         5.6065286729       11.2771938561        7.4442178615
  C         2.8681817046       10.7541759015        7.3382951123
  H         3.8215198973        8.8468572919        7.8446242768
  H         4.2419590202        9.6112582448        6.4495361914
  C         3.1754674906       12.0375607387        6.6524379507
  C         2.5589007425       11.4455060151        8.6061548366
  C         1.6391906277       10.1649233085        6.6502539541
  C         3.0966228133       13.1706368592        7.4721159960
  C         3.4899825487       12.4366772638        5.3430944573
  C         2.6782858853       12.7865121174        8.7757342550
  C         2.1527051594       10.7502100310        9.7702923211
  H         2.0685508426       10.0227116852        5.6985394238
  H         1.4126468771        9.1609878549        7.0806297561
  C         0.4019413571       11.0306918479        6.5853000645
  S         3.4555159316       14.6780302579        6.6888256498
  C         3.7968347574       13.7635582848        5.2246536115
  H         3.4618931634       11.7044375013        4.6320595518
  C         2.3820754429       13.3159574349        9.9693938653
  H         2.0100325991        9.7116781045        9.7216058768
  C         1.7697490574       11.3023933594       10.9605738031
  H         0.6329771408       12.0303331645        6.3418169770
  H        -0.0478543224       11.0796835169        7.5720311144
  C        -0.6790998426       10.4612879399        5.6884560740
  C         4.3383712578       14.3242273127        3.9379465149
  C         1.8583742469       12.6324757968       11.0841200539
  H         2.4390861392       14.3806312652        9.9933642212
  C         1.2177722879       10.8952099076       12.1811677625
  H        -1.5757359855       11.0192401983        5.8752276533
  H        -0.9927443558        9.5327072517        5.9989305647
  C        -0.3033012623       10.3556338489        4.2127136986
  C         4.3174513093       15.6755654979        3.6059338454
  C         4.8338151249       13.4176745563        2.8710249749
  C         1.2167547754       13.3169217695       12.2901704391
  C         0.9782811530       11.9908580658       12.9810240480
  S         0.8393039501        9.3741847258       12.7885688833
  H         0.4324144218        9.5199471622        4.0231881387
  H         0.1330834393       11.2527568217        3.8294337805
  C        -1.4104044858        9.9179862911        3.1459908359
  N         4.0366748132       16.7167402327        4.5118515785
  C         4.6506591722       16.1828865110        2.3774413863
  C         5.1281601582       13.9632768386        1.5818972569
  H         5.0155929451       12.3745915471        2.9797381360
  C        -0.0960235557       14.0999666085       12.2135770962
  C         2.2718090315       14.1982401133       12.9311384914
  C         0.4963958245       11.5691234755       14.2334187512
  C         0.3798863185       10.1986801930       14.2427565659
  H        -1.9316876586        9.0860750385        3.5373645155
  H        -2.1645222192       10.7337354196        3.0419524351
  C        -0.8633480600        9.6921665235        1.7314768841
  S         4.0141581607       18.1439554817        3.7241127880
  N         4.4789927202       17.5349016180        2.2671076589
  C         5.0523985385       15.4080961477        1.3140261207
  H         5.4081692847       13.2518513839        0.8278060943
  H         0.1245673795       14.8436663581       11.4887065767
  H        -0.3212501696       14.5065420708       13.1626102603
  C        -1.2914007516       13.2506101894       11.6738900727
  H         2.4661783674       14.8986048483       12.1435718195
  H         1.9286859226       14.9983917512       13.6370993911
  C         3.4154012641       13.4352114322       13.6659663663
  H         0.3639522961       12.3545031986       14.9988895449
  C         0.0928296850        9.3351038385       15.4621050982
  H        -0.0490327301        8.9954699260        1.7718461596
  H        -0.4298953181       10.5794930043        1.3661352098
  C        -1.7904580878        9.0991987412        0.6876457194
  C         5.1153041503       15.9940491304       -0.0372249749
  H        -0.9940090770       12.6651026591       10.8010824479
  H        -1.5767773925       12.4489466302       12.2944141378
  C        -2.5135906253       14.0360414611       11.3363235983
  H         3.8005022514       12.6736874027       13.0484099764
  H         3.0742925255       12.8695468373       14.5384617001
  C         4.4614204306       14.4758754014       14.1762387254
  C         0.1253891857        7.9340116106       15.6428147956
  C        -0.1551152201       10.0991341097       16.7603932236
  H        -1.8336752243        8.0692284919        0.9062885276
  H        -2.8249586953        9.5439767905        0.8543262199
  C        -1.2022243588        9.3955925618       -0.6586957577
  H         4.8829079603       17.0669196456       -0.0813696163
  C         5.4537431829       15.4379526032       -1.1930223566
  H        -2.3294189687       14.7556097079       10.5821724471
  H        -2.7142370416       14.5722135902       12.2106456255
  C        -3.6958666024       13.2152933889       10.8719303559
  H         4.7136505868       15.0809302007       13.3510582010
  H         4.1299498226       15.0468999142       14.9746763521
  C         5.6479908676       13.7050359459       14.6600593587
  N         0.3066317300        6.9873423120       14.6145571090
  C        -0.0102917698        7.3111680880       16.8725372132
  C        -0.2613004293        9.4608628355       17.9942584190
  H        -0.2191821850       11.1744142251       16.6483816027
  H        -1.5920014416        8.7239156752       -1.3729533040
  H        -0.1318399098        9.2064342840       -0.7877475578
  H        -1.2812598079       10.3946199237       -0.9553636486
  S         5.8998736166       13.7615479843       -1.5488306277
  C         5.4645495364       16.3125106087       -2.4063870545
  H        -3.3300628017       12.2640784768       10.3806892331
  H        -4.3250255853       12.8694398487       11.7570183222
  C        -4.6312522250       13.8915938751        9.9571196942
  H         6.0131563704       13.2234993023       13.7607883739
  H         5.2888245104       12.9104500618       15.3496346231
  C         6.6260089940       14.6181196132       15.4590113041
  S         0.4570206057        5.4978331840       15.2424991129
  N         0.0264361663        5.9005765257       16.7812889376
  C        -0.2476115319        8.0157450454       18.1165981896
  H        -0.3347771884       10.0176152687       18.8996713972
  C         6.0892812411       14.3256200274       -3.2721735526
  N         5.8750554957       15.6503055403       -3.5316693454
  O         5.3673057870       17.5281381070       -2.3360601455
  H        -5.0469746583       14.6455473986       10.5014619481
  H        -4.1320997576       14.4712751717        9.2696908144
  C        -5.6669223795       12.8417734341        9.3809749863
  H         6.0804540087       15.3650469754       16.0442795819
  H         7.2911436187       13.9785518512       16.0717863586
  C         7.6555015476       15.3515106795       14.5318235971
  C        -0.6023654043        7.2807406749       19.2864845618
  S         6.2761312313       13.1930767450       -4.5939103523
  C         5.9656283383       16.3046625984       -4.8669810072
  H        -5.2533380379       12.4385853163        8.4804383327
  H        -5.8802567004       11.9748232173       10.0523329577
  C        -6.9817776193       13.5145919314        9.0699086751
  H         7.1713222631       15.9029665027       13.7370029914
  H         8.2920177188       14.5626515052       14.1399793718
  C         8.4835586907       16.2030841851       15.5151198703
  H        -0.2759557584        6.2524772295       19.1103114439
  C        -1.1800758319        7.5678974601       20.4727284028
  H         6.6054646835       15.7026855035       -5.4172271533
  H         6.5959435929       17.2407077117       -4.9477532613
  C         4.6786739203       16.3991841368       -5.5984537719
  H        -7.5705514993       13.1091458214        8.3005879240
  H        -6.8522068421       14.5741166465        9.0063575563
  C        -7.8976815372       13.2669706737       10.2041120722
  H         8.4620957128       15.8528820984       16.5737944231
  H         9.5186720280       15.9671426019       15.1519062771
  C         8.2887738933       17.6945759433       15.4024644314
  S        -1.7423449366        9.0317621580       21.0865824559
  C        -1.3209111995        6.3952466185       21.3922344573
  H         3.8867332637       16.6434738515       -4.9371871198
  H         4.4636559874       15.3858324583       -5.9332051252
  H         4.7994550037       17.0398002815       -6.4669754449
  H        -8.7064185383       14.0421753743       10.2048626680
  H        -8.3757210790       12.3132147171       10.0860149212
  H        -7.3824860790       13.2160214920       11.2195159521
  H         8.0928600328       18.0358843290       14.3614645307
  H         7.4762521940       18.0348990171       15.9518835056
  H         9.1527151670       18.3675415839       15.8050571148
  C        -2.0361887992        8.0984599239       22.6192993008
  N        -1.8889945969        6.7281042933       22.5637301416
  O        -1.0662729478        5.2241088235       21.0789921289
  S        -2.6948812796        8.7882936148       24.1203213231
  C        -2.0905179004        5.7981010070       23.6691328725
  H        -2.2657566486        4.8174876918       23.2571026431
  H        -2.9228719041        6.0150220328       24.2677403671
  C        -0.7685783584        5.9359644230       24.4459598218
  H        -0.5355914315        5.1488689010       25.1203863736
  H        -0.8333665186        6.6883670371       25.3576264452
  H         0.1182670423        6.1601417079       23.8173463550
