352
i =
  H        -3.4613351849       14.7010478889       16.4695431293
  C        -2.9659396238       13.7155600869       16.4564493102
  H        -3.6450906903       12.9648781168       16.8264245507
  C        -1.7533878353       13.7334482536       17.3369337855
  C        -2.6085703637       13.2289440231       15.0342968688
  C        -1.8878163585       13.9024480571       18.8453568399
  H        -1.4737630111       12.7205042648       17.1945636858
  H        -0.8789319321       14.2870751733       16.9113917828
  H        -2.5174243619       12.1556311553       14.9885384962
  H        -3.2710208697       13.5371239506       14.2316515448
  H        -1.6332262637       13.4651153924       14.6107701093
  C        -2.6695670256       12.8291230065       19.5682494580
  H        -2.2105780823       14.9648648870       19.0292137502
  H        -0.9323220579       13.8885295633       19.2497084533
  C        -2.5985137380       13.1020162447       21.1196713264
  H        -3.7082937246       12.9111730256       19.1479220239
  H        -2.2395463523       11.9227936630       19.2770847812
  C        -1.3782384821       12.5389670811       21.8591604464
  H        -3.5615652247       12.8294992440       21.5919777887
  H        -2.5625880935       14.2037321383       21.2146603587
  C        -0.3909159561       13.5473318816       22.4341619522
  H        -1.7698914174       11.9488390214       22.6502706770
  H        -0.8523487382       11.7891933502       21.2686803885
  C         0.8290180596       12.9553181733       23.2410975379
  H         0.0021640137       14.0511122871       21.5599696794
  H        -0.8790818036       14.3644742438       22.9493317491
  C         1.3001394164       11.6498064241       22.5933712568
  C         0.4017263357       12.2405175157       24.5192287138
  C         1.9998693516       13.9809522194       23.4148226533
  C         1.0833442240       10.5693945959       23.4092430821
  C         1.8773134958       11.2797724841       21.4253950469
  C         0.4699721015       10.8897562484       24.6327347514
  C        -0.1808052005       12.7828160905       25.6733709957
  H         2.1206585945       14.4412033153       22.4299045175
  H         1.5634270680       14.6912400409       24.1333804731
  C         3.2032197557       13.3677647353       24.0635763690
  S         1.4899079963        9.0371375266       22.6271871379
  C         2.0182980792        9.9250178866       21.2108438352
  H         2.2263850042       12.0770687662       20.7363014139
  C         0.0780311656       10.2369263541       25.6775923687
  H        -0.3496190699       13.8446051107       25.5695307415
  C        -0.4939601321       12.1518921225       26.8404037605
  H         3.5955555133       12.7321974703       23.3041211342
  H         2.9801569036       12.6839832169       24.9429428397
  C         4.3921363494       14.2281008655       24.5796532482
  C         2.5001894904        9.2521088277       19.9704201943
  C        -0.4335313807       10.8323901380       26.8966007828
  H         0.1344012313        9.1568199855       25.6820103644
  C        -0.8452500951       12.4636348318       28.1368341180
  H         5.1879282073       13.6078400388       25.1429404096
  H         3.9948274832       14.9317701248       25.3226513476
  C         5.0773446071       14.9140998436       23.3814798346
  C         2.3994441562        7.8926006554       19.6174416232
  C         3.1479821070       10.1165178745       18.9774487328
  C        -0.8788431008       10.0942610521       28.1612290108
  C        -0.9296052225       11.3584993801       28.9532468816
  S        -1.2023701430       14.0185780101       28.8512665952
  H         5.9181147938       15.5709603347       23.6160592259
  H         4.3133165719       15.5170056672       22.8525028589
  C         5.8095873195       13.8483597822       22.5341611990
  N         1.9724626080        6.8586826578       20.4363412983
  C         2.8124298418        7.3893918313       18.3655815346
  C         3.5678932075        9.5722756823       17.7477364822
  H         3.1852141280       11.1582946716       19.0950315387
  C         0.1772806711        9.0926758557       28.6382222706
  C        -2.2193356793        9.3488090713       27.9495585600
  C        -1.3198837404       11.7795386735       30.2513616329
  C        -1.3663953272       13.1551323002       30.3867124799
  H         6.8352661797       14.2334274010       22.6552868173
  H         5.7502726680       12.7953392510       22.9020842984
  C         5.4432024208       13.9429884976       20.9979246820
  S         2.0555007395        5.4322792464       19.6236372800
  N         2.5212317028        5.9989131253       18.1931493209
  C         3.2706186632        8.2092390862       17.3575779924
  H         3.9480494628       10.2786356154       16.9917400109
  H         0.2259098950        8.3399467320       27.8608259145
  H        -0.2080082943        8.5324430768       29.4907456367
  C         1.5335861552        9.6263460536       28.9889407780
  H        -1.8837066685        8.5570572595       27.3296476592
  H        -2.5022399284        8.8865304720       28.9186871224
  C        -3.3857389802       10.1796829293       27.4466347121
  H        -1.5602246671       11.0080195899       30.9904753866
  C        -1.6980551161       13.8520499663       31.7032353346
  H         5.3796349707       14.9981437289       20.7263138179
  H         4.3598809939       13.6135344022       20.9451148800
  C         6.4603955725       13.0400216375       20.2142404890
  C         3.5756049771        7.6392519766       16.1239275374
  H         1.9965337740       10.2712585962       28.2017391937
  H         1.4674839912       10.3582252665       29.7803308238
  C         2.5378190967        8.6069745504       29.5053632028
  H        -3.1006344305       10.7257064092       26.5475519893
  H        -3.6586508807       10.8940795281       28.2313180644
  C        -4.6701465947        9.4310421883       27.0710915509
  C        -1.6957085299       15.2362572171       31.8784562991
  C        -1.8177613816       13.0488582893       32.9328268689
  H         7.0118168452       12.3374097315       20.8538357857
  H         5.9571210773       12.3602422534       19.5041943187
  C         7.6513008700       13.7415822714       19.5394649740
  H         3.5302607898        6.5437486208       16.0758256338
  C         3.9234291238        8.1914119569       14.8809322483
  H         2.7539377709        7.8234072574       28.7921211588
  H         2.1058135702        8.0730688522       30.3914915956
  C         3.8169494764        9.3342228052       29.9718368124
  H        -4.3830569878        8.6669319114       26.2948413378
  H        -5.0557973380        8.8300382760       27.9419202107
  C        -5.6115261773       10.4686587144       26.4900406571
  N        -1.4314623142       16.2108870355       30.9106987888
  C        -2.1249941714       15.7623840590       33.0522279572
  C        -2.0614040150       13.6588033033       34.1249518914
  H        -1.7383744822       11.9563623417       32.8740530083
  H         7.2289747154       14.5663599104       18.9582746318
  H         8.3704084437       14.1606390321       20.2075310045
  H         8.2126412540       13.0483280681       18.9287443933
  S         4.1108778633        9.8203316645       14.5869850653
  C         4.0400565492        7.2581026364       13.7660858756
  H         4.5520218442        9.2289216128       29.1663282653
  H         3.5995952162       10.3528968873       30.0569221796
  C         4.3614902856        8.7485274965       31.3130955763
  H        -5.1279153083       10.9993953601       25.7151190046
  H        -6.0180877428       11.0875181560       27.2170468925
  C        -6.8028033769        9.6942287745       25.9623208095
  S        -1.6372077894       17.6594981723       31.5449136752
  N        -2.1157125342       17.1968459715       33.0086838986
  C        -2.2717757279       15.0743859055       34.2669267516
  H        -2.2963659976       12.9541982739       34.9457312626
  C         4.4424670331        9.3089032892       12.9272097425
  N         4.4359934686        7.9542200834       12.6578720357
  O         4.0853283785        6.0744755765       13.8739333457
  H         3.7197155416        9.1483621165       32.1130281302
  H         5.3907180300        9.0638302826       31.3849553648
  C         4.4649475817        7.1970503827       31.2458069944
  H        -6.4972594254        8.9033761118       25.2213332143
  H        -7.2111113994        9.1393502914       26.8352725560
  C        -7.7437566606       10.6534793808       25.2469725684
  C        -2.5957508602       15.7963073320       35.4545479377
  S         4.7641119802       10.3830037332       11.5354242413
  C         4.5565864874        7.4226761437       11.3618491351
  H         3.6753935846        6.8837313851       31.9176283415
  H         4.3497204436        6.8264768540       30.2836835981
  C         5.7978097424        6.6335949351       31.6627696469
  H        -7.1982037982       11.0684600855       24.3371055957
  H        -7.8287392524       11.4762708363       25.8836768592
  C        -8.9991558586       10.0286328456       24.9312133570
  H        -2.5507182988       16.8427293729       35.3612305440
  C        -3.0698239189       15.5608915891       36.7035177061
  H         5.2013669559        8.0641913473       10.7722033381
  H         5.0888677152        6.4705562959       11.4493740250
  C         3.1991330887        7.2668142616       10.6144227557
  H         5.6612893227        5.6136444571       32.0475335850
  H         6.1756731738        7.2944939078       32.3909188518
  C         6.7647384489        6.5246172158       30.4444055401
  H        -9.3168926074       10.6275601705       24.0362239310
  H        -8.9190501654        8.9592172472       24.6825935650
  C        -9.9719293650       10.0905251570       26.1139513115
  S        -3.7128845579       13.9975448492       37.1942384273
  C        -3.1650916449       16.6240940753       37.7441057342
  H         2.3676146048        7.6169010493       11.1760384912
  H         3.2128776440        7.7371355609        9.6374569835
  H         2.9985311632        6.1754369931       10.5789559327
  H         7.7532738373        6.8710731523       30.6821060080
  H         6.5233006938        7.3901439204       29.7862376362
  H         6.8395831729        5.6731918961       29.8354085522
  H       -10.3953757866       11.0339647018       25.8804789274
  H        -9.4045239437       10.1933567714       26.9698640623
  H       -10.6365444373        9.2020409777       26.3070236726
  C        -4.1546890975       14.8255878860       38.6541236678
  N        -3.8808731301       16.1845142109       38.7260459042
  O        -2.6166886114       17.7093907295       37.6027278677
  S        -5.0857528462       14.3056045404       40.0219624381
  C        -3.9879558288       17.1186683563       39.8984222224
  H        -4.0685193287       18.1112671910       39.5372636484
  H        -4.9292709085       16.8688510901       40.4875186059
  C        -2.6444401000       17.0984132502       40.7692460879
  H        -1.6955193289       16.9040155741       40.2413602120
  H        -2.5618590486       18.0900915385       41.2725036295
  H        -2.7952603727       16.2256461703       41.4457289711
  H         7.8054832560       11.2890635404        3.3226686293
  C         8.3397562418       10.3283125090        3.6895867537
  H         7.4786840191        9.6385490533        3.9048955061
  C         9.0792634353       10.6574032436        4.9981427627
  C         9.3007921232        9.7508943798        2.5785647588
  C         8.1195961848       10.8063885255        6.1748442410
  H         9.7417438267        9.8046181420        5.2226725767
  H         9.5870561477       11.5404931342        4.8662516296
  H         8.8327930835        9.1711003449        1.7337108355
  H        10.0848735452        9.1559991359        3.0515728923
  H         9.7924086998       10.5278249909        2.0666173604
  C         7.4453965947        9.4669903878        6.6539063845
  H         8.7476848822       11.1842728664        7.0068998123
  H         7.3445529958       11.5483668449        5.9899430070
  C         6.5945662201        9.6332985017        7.9620456381
  H         8.2674809409        8.7241726502        6.7706797574
  H         6.7666860741        9.1112088895        5.9054544989
  C         5.3060290390       10.4354737918        7.6925878453
  H         7.2523812723       10.0285429791        8.7687105059
  H         6.5619631866        8.6487840943        8.2582796930
  C         4.0658094858        9.5812534844        7.3207649048
  H         5.0107475097       11.0539962267        8.5531799867
  H         5.5135353508       11.2036549699        6.9643823930
  C         2.7682545083       10.5003309117        7.2511993456
  H         4.0054863275        8.8429679651        8.1467958030
  H         4.2819230116        8.9770590865        6.4364652877
  C         3.0353197305       11.8728111210        6.5484054086
  C         2.4597204748       11.3084188708        8.5049625154
  C         1.6082100896        9.8115638782        6.4487121621
  C         2.7337098202       13.0171730114        7.2858541922
  C         3.5267658841       12.2563387554        5.2889553111
  C         2.3437211380       12.6345155253        8.5363526577
  C         2.0024796596       10.7359438242        9.7077983504
  H         2.0968670166        9.4992356428        5.5086834982
  H         1.0831379484        8.9722449902        6.9043735237
  C         0.3767761906       10.7342154882        6.0852259573
  S         2.8991182035       14.4807187150        6.4604906942
  C         3.6238701558       13.5844975762        5.1918875918
  H         3.7591946443       11.3978869263        4.6606967346
  C         1.8940410381       13.2781614540        9.6876273509
  H         2.0301244171        9.6784124796        9.7235515726
  C         1.4968633237       11.3475244083       10.8292262662
  H         0.6355832993       11.5807824639        5.4736947283
  H        -0.0687701600       11.0871444331        6.9609676538
  C        -0.6613485782       10.1205315440        5.1406752368
  C         4.1376777487       14.2489138430        3.9528371984
  C         1.4522838075       12.7198989043       10.8667257666
  H         1.9011296032       14.3721678466        9.6783653779
  C         1.1188793980       11.0040446128       12.0583916784
  H        -1.4881465913       10.7788065810        5.2438244715
  H        -0.9495195738        9.1301302689        5.3666927409
  C        -0.2181523993       10.1610062344        3.6749858691
  C         4.1191070466       15.6310597041        3.6563884998
  C         4.5715453592       13.3675167250        2.8340878023
  C         1.0106521303       13.4297885844       12.0989499246
  C         0.8343565959       12.1159711335       12.8320438289
  S         0.9368402994        9.5001374288       12.8845778345
  H         0.6400080949        9.4331051810        3.5844719184
  H         0.1094074768       11.1722188561        3.3919739118
  C        -1.3194097513        9.8092944928        2.6923008948
  N         3.9007625106       16.6589009707        4.4948769337
  C         4.4428380340       16.0664956913        2.3856542059
  C         4.8080864222       13.8426350433        1.5452117611
  H         4.7632101735       12.2801928466        2.9504547700
  C        -0.3177536960       14.1386673296       11.8790402915
  C         2.1223261077       14.3010483707       12.6835277021
  C         0.6252745099       11.7252481756       14.1223981408
  C         0.5997920971       10.3507790056       14.3150638353
  H        -1.9550111662        9.0356082983        3.0680830718
  H        -1.9589003385       10.6828620304        2.5373331964
  C        -0.7863072412        9.2565139891        1.3623832396
  S         4.1719402920       18.0835744892        3.8379296647
  N         4.2980476847       17.4518600540        2.3030094267
  C         4.7713218459       15.2805865240        1.2643214685
  H         4.9572514239       13.0370404725        0.7782918169
  H        -0.1102429102       14.9624120037       11.2078972356
  H        -0.5466524016       14.7044370578       12.7631367074
  C        -1.3786496128       13.3031176045       11.2310212986
  H         2.3383547414       15.0628332451       11.9268910149
  H         1.7378139548       14.7661745552       13.5703411436
  C         3.3742451388       13.4910579654       13.1803474931
  H         0.4209690146       12.4613509079       14.8924708321
  C         0.1921350302        9.5939797588       15.5766433530
  H        -0.5601821767        8.2030314483        1.4225922938
  H         0.2253332627        9.6495945401        1.1575043251
  C        -1.7365784345        9.6340244744        0.2339528145
  C         4.8848123370       15.8330930296       -0.0315902410
  H        -1.0929989011       12.9350793075       10.2660343526
  H        -1.5162775612       12.4695947823       11.8674723554
  C        -2.7273009718       14.0480558613       11.1215348282
  H         3.8528127515       12.9094921618       12.3878863242
  H         3.0851869937       12.8244548273       14.0216423390
  C         4.5492189545       14.4623020875       13.6466146309
  C         0.1012945650        8.1922892528       15.7322065003
  C         0.0188852901       10.3364026487       16.8288895707
  H        -2.1761080097        8.7395886614       -0.1641723117
  H        -2.4650353924       10.3125271407        0.5407812409
  C        -1.0679155470       10.2018424217       -1.0273285539
  H         4.5692608984       16.8817795243       -0.1002802041
  C         5.2112915685       15.3858868914       -1.2992482771
  H        -2.6863456331       14.9985649197       10.5739172490
  H        -2.9679844612       14.3014207006       12.0987836481
  C        -3.7404338259       13.1614058646       10.3945149651
  H         4.9760345526       15.0797300459       12.7880547586
  H         4.2171239515       15.1163588806       14.4737847493
  C         5.6487679869       13.6086531512       14.4035207830
  N         0.3488627669        7.3115682830       14.6887863018
  C        -0.3146492129        7.5372926936       16.8576551320
  C        -0.4893195591        9.6964823285       17.9811972966
  H         0.2086848123       11.3414651098       16.7938342291
  H        -0.2309096816        9.5252958415       -1.3211000022
  H        -0.5276701624       11.1836855199       -0.9227480931
  H        -1.7103499611       10.2643380704       -1.8830791968
  S         5.5380056293       13.7065376271       -1.7469382907
  C         5.3133885846       16.3809998805       -2.3814307190
  H        -3.2169758941       12.7157741078        9.5584834787
  H        -4.1179075918       12.4206268569       11.1119655644
  C        -4.7751015624       13.9165017598        9.7011820536
  H         6.1846856457       13.0522071979       13.6902986025
  H         5.2347522128       12.9733335698       15.1069611982
  C         6.6111302381       14.4631617569       15.2985288732
  S         0.2355676186        5.7797821265       15.2243666432
  N        -0.3242370212        6.1436361686       16.6574081030
  C        -0.6483341471        8.1779785017       18.0137666316
  H        -0.6402535198       10.2741306716       18.8792084204
  C         5.7017289888       14.4736500243       -3.3567536917
  N         5.6493179822       15.8184218488       -3.5071529169
  O         5.1417812941       17.5611000639       -2.2440270469
  H        -5.3008917324       14.5564914847       10.4248680931
  H        -4.3009905057       14.7025785509        9.0150191913
  C        -5.7189857912       12.9389654513        9.0351938895
  H         6.1447247300       14.7241184979       16.2198129367
  H         7.4845129679       13.8890367221       15.5731797563
  C         7.0026331838       15.8310919133       14.6785766513
  C        -1.0449914607        7.3080762565       19.0789373907
  S         6.0850174518       13.4873455542       -4.7578376346
  C         5.8009974104       16.4932439267       -4.8153850636
  H        -5.2950812505       12.5122573152        8.1253650449
  H        -6.0091274523       12.0729443180        9.5515075391
  C        -7.0386157816       13.6104797782        8.7345943788
  H         6.1054561578       16.5053331347       14.5870475936
  H         7.2219489836       15.6897562847       13.6614650967
  C         8.2006864218       16.5181561507       15.2969984271
  H        -1.1816970771        6.2691897581       18.9647946958
  C        -1.5826925297        7.6256759690       20.2990616455
  H         6.5475953574       16.1079994480       -5.4623869947
  H         6.1845267339       17.4887105755       -4.5488902313
  C         4.4926352831       16.5387786764       -5.5800471860
  H        -7.6963300073       13.0999724477        8.0042319360
  H        -6.8904545989       14.5846267932        8.1957550471
  C        -7.8372617001       13.9652408296       10.0368871948
  H         8.4891255781       16.1907283417       16.3167579909
  H         9.0898265382       16.1534188563       14.7868815949
  C         7.9785880667       18.0326989801       15.2081382638
  S        -1.8914009367        9.2178039850       20.8473103163
  C        -1.8627453557        6.5422172804       21.2718872242
  H         4.6304093979       16.9710530523       -6.5421312514
  H         3.6085821921       16.9605705908       -5.0738916657
  H         4.1685813787       15.5961462373       -5.9130670191
  H        -7.3980657313       14.6734694422       10.7261549693
  H        -8.7813218546       14.4743302087        9.7468933969
  H        -8.2995151626       13.0888110121       10.4784963122
  H         7.7386691583       18.4296551933       14.2323508361
  H         7.1976584526       18.2337337136       15.8346047263
  H         8.8810591464       18.6314887263       15.5696083165
  C        -2.4644454317        8.5178694255       22.3519990455
  N        -2.3921245147        7.1715066997       22.3400102666
  O        -1.5829366819        5.3742041192       21.1029658810
  S        -2.8588059690        9.4423960327       23.7720752415
  C        -2.6067623910        6.3470128539       23.5035762910
  H        -3.0063440613        5.4252880082       23.0826957410
  H        -3.5059978261        6.6552025361       24.1080826126
  C        -1.3776027809        6.0570542606       24.3246970032
  H        -1.0667162200        6.8554593271       24.8982250481
  H        -0.5254745040        5.7905335448       23.5971252436
  H        -1.5358590937        5.1421580520       24.9857784147
