352
i =
  H        -3.9748466992       14.7600131106       16.3392443762
  C        -3.5609423219       13.7557767859       16.3141644298
  H        -4.4321676393       13.0989945050       16.5198293414
  C        -2.5003137446       13.6234732902       17.4325018251
  C        -2.9399967854       13.4279349924       15.0081133042
  C        -3.0673253447       13.7106585942       18.8424771491
  H        -2.0633158136       12.5846701581       17.3250205186
  H        -1.6484002408       14.4079333602       17.3015390312
  H        -1.9923003090       14.0414278066       14.7887560134
  H        -2.6757238732       12.3636175842       15.1216096496
  H        -3.6292813989       13.5558501538       14.2203117926
  C        -1.9352424226       13.6968763736       19.8621877046
  H        -3.5679228850       12.8042675928       19.0153141327
  H        -3.7857081163       14.5756049115       18.8646428837
  C        -2.4659428667       13.5722134599       21.3321381530
  H        -1.3141592960       12.8703168104       19.6592629037
  H        -1.3333871892       14.6581975813       19.7798737683
  C        -1.4394500219       12.9335133501       22.3126811204
  H        -3.2988120849       12.9023110814       21.3142763447
  H        -2.7519416535       14.5331646103       21.7272111718
  C        -0.2043967776       13.7962561012       22.4858029849
  H        -1.8059574944       12.6873917245       23.2236520051
  H        -1.2002038540       11.9108682442       21.9457801458
  C         1.0418067299       13.1197753801       23.1341662822
  H         0.1761386251       14.2902834410       21.5667703258
  H        -0.4954717320       14.7349722006       22.9475212399
  C         1.3562111049       11.8298058255       22.3909078580
  C         0.6047432600       12.3807662057       24.3834482010
  C         2.1848099429       14.1656875833       23.2435487365
  C         1.1251683325       10.7070233763       23.2142768167
  C         1.8475273479       11.4964528536       21.1067901282
  C         0.6269690561       11.0882966471       24.4311242434
  C         0.1248219929       12.9906071756       25.5307912353
  H         2.4104961121       14.6080299171       22.2805291133
  H         1.7455060316       14.8627586531       23.8772962910
  C         3.4995983136       13.5254049436       23.8266316801
  S         1.4562357672        9.2540128143       22.3916868303
  C         1.9181042181       10.1125132272       20.9918551955
  H         2.1803372178       12.1497339187       20.2646997506
  C         0.1963491884       10.4164067870       25.5273291255
  H         0.2863352512       14.0679028833       25.5943822737
  C        -0.3085248875       12.3614525415       26.6803670891
  H         3.9075120233       12.8278456166       23.1229495129
  H         3.2895223340       12.9736707425       24.7487014419
  C         4.5775882652       14.5435569371       24.0892434588
  C         2.4019888688        9.4097434275       19.7371504801
  C        -0.3206954387       11.0097985092       26.7065797133
  H         0.3129247232        9.4054460777       25.5570689670
  C        -0.6639775212       12.7240966880       27.9542984994
  H         5.2737015773       14.1672817332       24.8029928947
  H         3.9997780743       15.3737758992       24.6417409651
  C         5.3224276180       15.1325164107       22.8929354888
  C         2.5053593318        8.0083985749       19.5355966240
  C         2.8622483900       10.2022433709       18.5923146073
  C        -0.6939291715       10.3262162424       27.9340253852
  C        -1.0183397415       11.6697357041       28.6741009790
  S        -0.6775033262       14.2205349233       28.8164316814
  H         5.9964496516       15.8825835434       23.3646521232
  H         4.6180172998       15.6079527799       22.2294210644
  C         6.2698437028       14.1262821928       22.0961241737
  N         2.0643581532        7.0978912455       20.4883638110
  C         2.8832412523        7.3983431505       18.3496015286
  C         3.0534179940        9.6611334529       17.3291628559
  H         2.8942424946       11.2248875360       18.6967833403
  C         0.3969087837        9.4458930701       28.6757981387
  C        -1.8913008402        9.4165124808       27.6343542691
  C        -1.2953313251       12.0329645927       30.0024768823
  C        -1.2134947640       13.3816911614       30.2219891746
  H         7.1801582982       14.6967142481       21.7580703170
  H         6.6361249970       13.3191573891       22.6429524734
  C         5.6493230220       13.4740590075       20.8552535534
  S         2.2921868170        5.5796017990       19.8726757560
  N         2.8199902581        6.0041331565       18.4167719075
  C         3.1542072741        8.1671197259       17.1736813269
  H         3.2545499117       10.2975311231       16.4665643559
  H         0.5895821126        8.4644990833       28.2119588549
  H        -0.1768371114        9.2690670217       29.5801944150
  C         1.5942358946       10.2633525337       28.9155650480
  H        -1.6501114659        8.7943457569       26.7866578573
  H        -2.1106742034        8.8551854697       28.5906895926
  C        -3.2158675778       10.1800158742       27.4279905829
  H        -1.5484579537       11.2665596871       30.7469295084
  C        -1.5247780092       14.1080594662       31.5324640558
  H         4.5619472668       13.4129555497       21.0377949304
  H         5.9326917425       12.4589702572       20.7514076006
  C         5.7697940588       14.2269225179       19.5088045945
  C         3.3992541723        7.5202583789       15.9124674949
  H         2.0697992783       10.5871710826       27.9301469832
  H         1.2671532010       11.0748626120       29.5596749485
  C         2.6131987611        9.4635925378       29.6149098940
  H        -3.1668727678       10.8545603194       26.6104212585
  H        -3.5220986810       10.7628778881       28.2724865142
  C        -4.3551002657        9.3067879287       27.0645648192
  C        -1.6528897618       15.5330071341       31.6549648703
  C        -1.6333333141       13.2847029719       32.7558787216
  H         4.9052671081       13.9952982858       18.8036624972
  H         5.8660705981       15.2643092190       19.7114119242
  C         6.9636481874       13.7895254005       18.7267952970
  H         3.2015581460        6.4401706534       16.0500565179
  C         3.7381321006        7.9234844669       14.6994643422
  H         2.9417590494        8.7957673162       28.8138132267
  H         2.2142131143        8.7269630425       30.3342512683
  C         3.7739369564       10.2275660692       30.1159286945
  H        -4.1029412680        8.5498958812       26.3244613272
  H        -4.4628115309        8.6650485634       27.9197940086
  C        -5.5106233560       10.1876943495       26.7056535313
  N        -1.5980247591       16.3741148021       30.6211530363
  C        -1.9134865657       16.1459012832       32.8841052884
  C        -1.9369074451       13.9083668636       33.9702482524
  H        -1.5610547721       12.2406761424       32.7169448114
  H         7.3009954907       12.7780423858       18.9647320285
  H         6.7034758823       14.0057413906       17.7065749112
  H         7.7734723651       14.4243494858       18.9715538428
  S         4.0832922197        9.5087448444       14.2167656762
  C         3.7924503505        6.9472476614       13.6081279020
  H         3.7959902077       11.1364080609       29.5572163285
  H         3.5122093853       10.3696708924       31.1618447588
  C         5.0953265925        9.5268907444       30.0392736080
  H        -5.2470966895       10.9423106221       25.9580283295
  H        -5.8079513218       10.7806282445       27.5741982293
  C        -6.6698825640        9.4733898079       25.9564335363
  S        -1.6030699898       17.8863469201       31.2328900503
  N        -1.7885764812       17.5504750579       32.8011323027
  C        -2.1375758741       15.3606704472       34.0511454784
  H        -2.0362169980       13.2808584359       34.9002717488
  C         4.3857267377        8.8444945174       12.6362218612
  N         4.3609518929        7.5203729304       12.5523699747
  O         3.6876685817        5.7420393739       13.7883041937
  H         5.8888641713       10.2635323163       30.0215279442
  H         5.0936598723        8.9618492589       29.1241846776
  C         5.2590326757        8.4512393899       31.0952112765
  H        -6.2512442514        8.9007455730       25.1221806232
  H        -7.1218460269        8.6262156303       26.4647575130
  C        -7.7105998471       10.4170280229       25.4929793763
  C        -2.5461805944       16.0523326292       35.2539725116
  S         4.8620362038        9.6995068724       11.1827876519
  C         4.5413174194        6.9133322982       11.2137236633
  H         5.4358504195        8.8858152061       32.0472483196
  H         4.3576737363        7.9515925355       31.2257268110
  C         6.2463169536        7.2946787876       30.7651264909
  H        -7.2433248523       10.9710574505       24.7223327995
  H        -7.9301617522       11.1865987664       26.2391914291
  C        -8.9063794839        9.7622025086       24.9434927844
  H        -2.4223770381       17.0515994366       35.1746563919
  C        -3.0834791796       15.6799467550       36.4652735824
  H         5.3601771281        7.2893800339       10.6439627140
  H         4.9996202407        5.9456056258       11.3776772106
  C         3.2066871140        6.7549505887       10.4756538985
  H         7.0942543944        7.6890406573       30.1558008912
  H         5.7701178127        6.5048715257       30.2071916303
  C         6.7812619222        6.7299296934       32.0909743090
  H        -9.2454193147       10.2562047009       23.9677800176
  H        -8.6151127123        8.7569607407       24.7995887021
  C        -9.9998881768        9.8621210858       26.0219203769
  S        -3.6359790934       14.1038254902       36.8560112618
  C        -3.2832516426       16.7237573070       37.5044328066
  H         2.9739634954        7.4770758225        9.7603516220
  H         3.1474228012        5.7532623827       10.0944988566
  H         2.4406019476        6.8327945452       11.1998601049
  H         7.3493102943        7.5198504846       32.6787936978
  H         7.4503646195        5.9312361862       31.9135062857
  H         5.9201889376        6.3083963048       32.6218625074
  H       -10.9975446750        9.6413602830       25.5579370380
  H       -10.1155190102       10.8115625802       26.5133201966
  H        -9.7173843056        9.2703680848       26.9190667710
  C        -3.9765959510       14.7522837969       38.3968819770
  N        -3.8302941688       16.0907876670       38.5499177734
  O        -2.8602625059       17.9082809882       37.4491019505
  S        -4.6750194092       13.8623128688       39.8101810391
  C        -4.0536681881       16.7499270465       39.8967401971
  H        -4.1591762767       17.8213603565       39.7250870195
  H        -4.9290694315       16.4390879798       40.4968615836
  C        -2.8515934844       16.4683290105       40.7857460833
  H        -1.9170573085       16.7421413468       40.3121982217
  H        -2.9223681874       17.0167774792       41.6961662904
  H        -2.8768479242       15.3689654385       40.9186036756
  H         7.4124457246       11.1801644640        3.0847959193
  C         8.1894307488       10.4799105952        3.2017138619
  H         7.6394126548        9.5004951795        3.1758745079
  C         8.9821975348       10.6613385013        4.5542223638
  C         9.1516321297       10.5312063646        2.0487189761
  C         8.0572817254       10.8496344754        5.7716080647
  H         9.6509538521        9.8566404467        4.6993167414
  H         9.6361481988       11.4785208017        4.4371630028
  H         9.9429402053       11.2990475519        1.9866252503
  H         8.5639479408       10.6782729685        1.1585935401
  H         9.5750662470        9.5885791568        1.8429642387
  C         7.4992250691        9.5118674321        6.2953664989
  H         8.6972466544       11.2760609134        6.5579489088
  H         7.2088053927       11.5183148373        5.5283004006
  C         6.8002343888        9.5900616945        7.6991201455
  H         8.2443080329        8.7534272868        6.3727717972
  H         6.8752811103        8.9854207906        5.5790611367
  C         5.4969487509       10.4453155103        7.7062536320
  H         7.5538516441       10.0730915488        8.3452255382
  H         6.5312197917        8.6575307015        8.2511535000
  C         4.2241057721        9.6854407236        7.2795051374
  H         5.4131412184       10.7629518212        8.7199666040
  H         5.7267206928       11.3703185829        7.0608547351
  C         2.9835053016       10.5972173700        7.0684097684
  H         3.9884422775        8.8930281706        8.0374758502
  H         4.3183817907        9.1439460168        6.3462836656
  C         3.4078326585       11.9300445602        6.4182143386
  C         2.5501311954       11.2852435494        8.3322694045
  C         1.9089231462        9.8444457592        6.3215015322
  C         3.1940928034       13.0407325579        7.2184865219
  C         3.9345072766       12.3516758139        5.1830463488
  C         2.5997597406       12.6533843099        8.4240183486
  C         2.1683480538       10.6508233257        9.4977107563
  H         2.3136048896        9.2947816562        5.4612766985
  H         1.4850077301        9.0249296386        6.8893210022
  C         0.6756850998       10.7508106539        5.9326293657
  S         3.3318068092       14.5517781445        6.4246271370
  C         3.9706659405       13.7317205429        5.0341336039
  H         4.1469443294       11.6144821643        4.4437685671
  C         2.1321952560       13.3011524522        9.5218425527
  H         2.1535837023        9.5780564424        9.6115934199
  C         1.7884040036       11.2883812813       10.6329855509
  H         1.0299149213       11.6916894015        5.4121258903
  H         0.0615067897       10.9377366512        6.7933635150
  C        -0.2349587843       10.1543613466        4.8078158037
  C         4.2879403020       14.4595032458        3.7660490129
  C         1.6646473787       12.6651136113       10.6947686938
  H         2.2649771582       14.3699026930        9.6621887463
  C         1.2777446784       10.8979750100       11.8490638058
  H        -1.1323181326       10.6948516425        4.9013851371
  H        -0.5567842685        9.0717822119        4.9582758367
  C         0.2702324457       10.5062382204        3.4081849322
  C         4.2233373142       15.8259735554        3.5829850254
  C         4.7303028130       13.6504358004        2.6187924925
  C         1.2182831468       13.3742665735       11.9538606543
  C         0.9375303141       12.0209645770       12.6138475031
  S         0.8899469655        9.4213237981       12.5884973111
  H         1.2721859208       10.2103782475        3.2217554638
  H         0.2659014707       11.5734999700        3.3934738611
  C        -0.7312703225        9.8413187791        2.3968110602
  N         3.9468138533       16.8333650750        4.5070709075
  C         4.5024241146       16.3956842332        2.3382808042
  C         5.0423185557       14.1882931572        1.3606166096
  H         4.7698646552       12.5483586333        2.6303011131
  C        -0.0716946050       14.1794577993       11.7588922266
  C         2.4011724522       14.0545227019       12.7224607448
  C         0.5148592899       11.6088290372       13.8787004059
  C         0.5381812469       10.2343671851       14.0697861400
  H        -1.3115278535        8.9501950512        2.7019906806
  H        -1.3933828456       10.6431839114        2.2912652134
  C        -0.2728087366        9.6094371749        0.9886027300
  S         3.6908132287       18.2322448358        3.6616859238
  N         4.1350939613       17.7164290527        2.2412800543
  C         4.8243664339       15.6540151710        1.1402743817
  H         5.1346176360       13.4999246642        0.5781866053
  H         0.1470025019       14.8986734992       10.9668030578
  H        -0.1945752185       14.6899116725       12.7129182365
  C        -1.3071253598       13.4140236823       11.2018010408
  H         2.3317407822       15.0740853359       12.4182756787
  H         2.1436348607       14.1688469391       13.8183747753
  C         3.7859838238       13.4568494665       12.5709115865
  H         0.3529891968       12.3858905325       14.5854459914
  C         0.1158674988        9.5650824240       15.3400210917
  H        -0.0686699275        8.5033970212        0.9117450699
  H         0.6617658035       10.1181865602        0.6667532106
  C        -1.3575357863        9.9201515879       -0.0901497862
  C         4.9703727502       16.3319884519       -0.0760329334
  H        -0.9264931501       12.8975933720       10.3132120692
  H        -1.5889308834       12.6106182905       11.9077253953
  C        -2.5876198582       14.2499691969       10.8837646226
  H         4.1730015253       13.7385919304       11.5709409855
  H         3.7943438518       12.3552393440       12.7260400915
  C         4.6336904105       14.0219529267       13.6845361413
  C         0.1172817153        8.1617659978       15.5434176101
  C        -0.1322953304       10.3503887877       16.5762591788
  H        -2.3131662190        9.4947015972        0.0553217278
  H        -1.7281894423       10.9761370253       -0.1590755390
  C        -0.7954021227        9.4863306511       -1.4023948276
  H         4.9509180583       17.3866533642       -0.0686378909
  C         5.1884731364       15.8767894501       -1.3505428893
  H        -2.3665637096       15.0895331645       10.3579650035
  H        -3.0059407533       14.6531540683       11.7838963804
  C        -3.6561639549       13.4221280798       10.0867347403
  H         4.3046087563       15.0042063295       14.0059456208
  H         4.3260332662       13.4076765890       14.5530201202
  C         6.1445243315       13.8312535637       13.5302374631
  N         0.5228032675        7.2273118435       14.5596387178
  C        -0.2405313188        7.5646479841       16.7426741298
  C        -0.6031230708        9.8120620274       17.7127701588
  H        -0.0446530620       11.3802165410       16.5313315922
  H        -0.9968054778        8.3887273280       -1.5937990856
  H         0.2709086377        9.6397728135       -1.3906235178
  H        -1.2842308239       10.0104603179       -2.1641945005
  S         5.5433933774       14.2440607707       -1.8565205270
  C         5.3703687066       16.9126682777       -2.4330473576
  H        -3.1738099232       13.1120889101        9.2131485576
  H        -3.8500497137       12.5502520464       10.6733259019
  C        -5.0515535648       14.2206803785        9.8807952898
  H         6.4287498829       12.9079062603       12.8750331389
  H         6.6590078172       13.6300333243       14.4736100477
  C         6.8461490052       14.9510866705       12.9305257718
  S         0.3963807465        5.7851072751       15.2098210100
  N        -0.1905852136        6.1515353151       16.7011390431
  C        -0.6898550073        8.3507710472       17.8785609692
  H        -0.8521387074       10.4416128122       18.5792279569
  C         5.6781242279       14.8854817772       -3.4619054004
  N         5.6787289427       16.2582403750       -3.5822795502
  O         5.4255129897       18.0850707387       -2.1393763398
  H        -5.3330616457       14.3991866102       10.9434167686
  H        -4.8332083998       15.1648041769        9.4170350101
  C        -6.0538867077       13.4310193212        9.0405036986
  H         7.8660863337       14.6781224823       12.6430765348
  H         6.2817999544       15.4234692025       12.1040344634
  C         7.1158682319       16.1405863867       13.9161328567
  C        -0.9500995613        7.6899720745       19.1114498235
  S         6.4605398118       13.9939640815       -4.7809390896
  C         5.6632532331       16.9741704592       -4.8673262178
  H        -5.8310816892       13.5706569434        7.9686934428
  H        -5.8909912357       12.4080741800        9.1778596772
  C        -7.5192319818       13.7758993712        9.3040209391
  H         6.5509517451       15.9376649594       14.8727850702
  H         6.5057680790       17.0325259155       13.5408823473
  C         8.4978882854       16.6708346331       14.0140656976
  H        -0.5587256346        6.6958127776       19.1559944439
  C        -1.5219584715        7.9998742179       20.3270265812
  H         6.2959877312       16.5353562695       -5.5939124571
  H         6.2147903755       17.8677453180       -4.6773275556
  C         4.2777701486       17.0354893166       -5.4571042900
  H        -8.1906960219       13.5247901221        8.4327876225
  H        -7.5036045404       14.8761940700        9.3316170951
  C        -8.0594201492       13.2684592936       10.6596533130
  H         9.1791959370       15.8250197205       14.2923715021
  H         8.7605993981       17.0665005183       13.0027731291
  C         8.6826355949       17.7453829227       15.1193523943
  S        -2.3188825003        9.5063063648       20.5605733856
  C        -1.6034590725        6.9603239344       21.4026363858
  H         4.1217376444       16.2247200893       -6.1921242209
  H         4.0606831602       18.0255215254       -5.9675730999
  H         3.5085778284       16.9196351584       -4.6914931369
  H        -7.9938420067       14.0874346991       11.4341362168
  H        -8.9985387461       12.7223370659       10.5330928883
  H        -7.4473382088       12.4263157179       11.1091745883
  H         9.2704752138       17.3734787977       15.9035216300
  H         9.2130165848       18.6270380296       14.7072990999
  H         7.6554732342       18.1282537469       15.4985074790
  C        -2.7968819918        8.7239131084       22.0802307332
  N        -2.3816405304        7.4960337197       22.3159381723
  O        -1.1445728459        5.8506979154       21.3194861322
  S        -3.6981435232        9.4408501749       23.3346864973
  C        -2.4948058742        6.7037445415       23.5621394579
  H        -2.8084757405        5.6593354246       23.3843368537
  H        -3.1558502976        7.1318135696       24.2687761574
  C        -1.0993859968        6.6203061351       24.2107757688
  H        -0.4339173127        5.8803902702       23.8459491203
  H        -1.1449208037        6.4231551135       25.2865106369
  H        -0.5916243903        7.5581190974       23.9970247579
