352
i =
  H        -3.9414265838       14.7240520204       17.0442687182
  C        -3.3084060005       13.9051012322       16.7235675837
  H        -3.9116466031       12.9740989216       16.8068081142
  C        -2.1009890221       13.9354983754       17.7865357836
  C        -2.7323382521       14.0106873725       15.2879976182
  C        -2.7558203245       14.0072259966       19.1121392159
  H        -1.5318653571       12.9747375970       17.6530284942
  H        -1.4175286105       14.8960950141       17.5184113035
  H        -3.6064180437       14.3564968720       14.7486019585
  H        -1.7468464258       14.5602657271       15.3244881238
  H        -2.5132885838       12.9806676938       14.8826789037
  C        -1.7532651714       14.2047904278       20.2354093151
  H        -3.2725418778       12.9862568584       19.3790764701
  H        -3.7307942042       14.6774506495       19.0427065486
  C        -2.3090286532       13.8216233771       21.6699853550
  H        -0.9118534971       13.5739171183       19.8290659240
  H        -1.4088204432       15.3100056608       20.1787795707
  C        -1.1723909714       13.0652586950       22.3677124348
  H        -3.2495209933       13.1562533318       21.4955020550
  H        -2.6688972531       14.8597197467       21.9312526946
  C         0.0913125491       13.8048939342       22.7204830835
  H        -1.5271720471       12.5166762766       23.2384777568
  H        -0.9155517727       12.2020153668       21.7044217010
  C         1.1725371252       13.0001575445       23.3004384285
  H         0.6418460900       14.2612995679       21.9340540653
  H        -0.2811726599       14.7305664070       23.3768662653
  C         1.4617843632       11.7766915055       22.4934016851
  C         0.7624357758       12.3374158729       24.5608757000
  C         2.3887983124       13.8921439475       23.6018107275
  C         1.3604920889       10.6435558952       23.3442778945
  C         1.9287845375       11.4218756776       21.2260490631
  C         0.8443220147       10.9694871767       24.6413377220
  C         0.3071056550       12.9619566099       25.6580368041
  H         2.7175265146       14.4594874046       22.7767964793
  H         2.0562271914       14.5869953973       24.3680960670
  C         3.6254011725       13.1344467877       24.2011013717
  S         1.6007660453        9.1517258262       22.5822274411
  C         2.1726657225       10.0271912977       21.1365817918
  H         2.0551507595       12.1194152075       20.3978682076
  C         0.3683105460       10.3689234011       25.7458276062
  H         0.1353828173       14.0169224105       25.7393659241
  C        -0.0816732587       12.3456319236       26.8653744876
  H         3.8683228570       12.4604838214       23.5191406603
  H         3.4348599240       12.5578618415       25.0253584254
  C         4.8604549822       14.1090904036       24.6008161984
  C         2.7400379178        9.3442589713       19.8850086071
  C        -0.1054707601       11.0004463391       26.8895616670
  H         0.3749047627        9.2239440945       25.6881232041
  C        -0.5387807340       12.7484673637       28.1192036764
  H         5.6463682911       13.7293166196       25.3237258318
  H         4.4914296898       15.1522138811       24.7737956031
  C         5.5584605086       14.4209190103       23.2643961180
  C         2.6618917963        7.8808039736       19.5605685626
  C         3.1327932003       10.1861646074       18.7893043469
  C        -0.5604650606       10.2625868529       28.1352733255
  C        -0.8847961780       11.6611828224       28.9062782452
  S        -0.7578596866       14.2722439453       28.8359412170
  H         6.2142858554       15.3702299549       23.2099409875
  H         4.6719574426       14.6771213008       22.5288773317
  C         6.3761971264       13.2814599136       22.6190346053
  N         2.2105216718        6.8830671934       20.4836406535
  C         2.7999031584        7.3615123000       18.3315692243
  C         3.3307978607        9.7271261018       17.4807730743
  H         3.4361081592       11.2406428947       18.8824115015
  C         0.4553692230        9.4755037230       28.9460310864
  C        -1.7749897597        9.3673650895       27.8146202363
  C        -1.3174067412       11.9656022532       30.1377926367
  C        -1.3134128062       13.3767024795       30.3103212281
  H         7.0778645613       12.7239088334       23.2693905689
  H         5.6518449852       12.5563297249       22.1483227107
  C         7.2350864073       13.7114839598       21.3790007602
  S         1.9900754284        5.5012375436       19.6696799333
  N         2.6287819105        6.0018129522       18.2446542971
  C         3.0440133368        8.2926052543       17.1969871462
  H         3.6043111195       10.3266066813       16.8517135077
  H         0.6687681163        8.6043411756       28.4116763672
  H         0.0985342813        9.2303460817       29.9096307159
  C         1.7120944011       10.1043146849       29.2922251976
  H        -1.4561348381        8.6366993122       26.9800112882
  H        -2.0107531842        8.7244786776       28.7662290810
  C        -2.9856748781       10.1708711230       27.4358133067
  H        -1.6101120135       11.2056356111       30.8056151097
  C        -1.7411691531       14.0769533442       31.5452875038
  H         8.0458030967       13.0193060425       21.3546132592
  H         7.4129775818       14.8237626907       21.5821571972
  C         6.4905489956       13.4774625705       20.0120424086
  C         3.3041010390        7.5876170484       15.8908233822
  H         2.1980030714       10.6091709274       28.3706231423
  H         1.4736317567       10.8434074737       30.1636689492
  C         2.8228939059        9.3032007384       30.0109819884
  H        -2.7573870586       10.9987509303       26.7319669311
  H        -3.3519465179       10.7282727183       28.2513937423
  C        -4.1294538926        9.3346051120       26.9013685593
  C        -1.8533474203       15.4908032799       31.7446125015
  C        -1.8641134431       13.2169391987       32.6927961284
  H         6.0705160773       12.4470875116       19.9177644462
  H         5.6576051797       14.2598406182       19.9918931083
  C         7.2531983920       13.6074655666       18.6939474010
  H         3.1486432936        6.4529165224       15.8861197072
  C         3.5891565549        7.9999090180       14.6501550888
  H         3.3767825625        8.5933872361       29.2486130935
  H         2.2937138116        8.5260215152       30.7400925771
  C         3.7739031855       10.0769833480       30.8549134651
  H        -3.8977263676        8.6558273709       26.1005450524
  H        -4.6956624614        8.8474478297       27.6405108630
  C        -5.3042788898       10.2395278490       26.3067820705
  N        -1.6009954969       16.4733459396       30.7825251527
  C        -2.2387544301       16.0735096455       32.9291333359
  C        -2.1959933554       13.7861460417       33.9092660169
  H        -1.6355300451       12.2802365680       32.6746069713
  H         6.7579641101       13.2264713587       17.9148123935
  H         7.4787578771       14.6789568405       18.4480492044
  H         8.1485418403       12.9917292492       18.7454017629
  S         3.9659328494        9.5935486294       14.1180956219
  C         3.7461979689        6.9200199575       13.5843777376
  H         3.8237939175       11.0859523737       30.4602252536
  H         3.4312556663       10.1433677235       31.8614393750
  C         5.1972130085        9.5331948149       30.8934487478
  H        -4.8883936792       10.9956116478       25.5117451960
  H        -5.6095052259       10.9404751768       27.1510637729
  C        -6.4886295478        9.6081033082       25.8897402982
  S        -1.8263980269       17.9253048605       31.3892568883
  N        -2.2663257630       17.4751156510       32.8525611359
  C        -2.4641794306       15.2499393085       34.0444054103
  H        -2.2898122518       13.3322166078       34.7635902574
  C         4.3371365062        8.8257084773       12.5868990491
  N         4.2101912112        7.4880921433       12.4701088514
  O         3.5961449911        5.7489311774       13.7520972274
  H         5.7747475474       10.1897376041       31.3207664033
  H         5.5076233511        9.4534334336       29.9349746813
  C         5.2604278413        8.1701527077       31.6819854436
  H        -6.2797189047        8.9871021431       24.9933162834
  H        -6.9578710337        8.9228801050       26.5647026304
  C        -7.6274205923       10.6863367451       25.4445516228
  C        -2.8920993649       15.9761778220       35.2492890315
  S         4.7592068915        9.6453445695       11.1389478423
  C         4.3983171063        6.7483604562       11.2349392302
  H         5.7907562130        8.3638374555       32.6319886858
  H         4.3793947702        7.9525319907       31.9600674010
  C         6.0315720772        7.0762095191       30.9468943981
  H        -7.4521907144       10.9188883030       24.3890225079
  H        -7.7193795043       11.5371201386       26.3246624613
  C        -8.9806252923        9.9320514487       25.3860917361
  H        -2.6716143044       17.0850866327       35.3587315372
  C        -3.5015163259       15.5256234125       36.4176403890
  H         5.3946088781        7.0081945272       10.7965000227
  H         4.4370715959        5.6720280524       11.6465710267
  C         3.1307759486        6.7684035065       10.3244921176
  H         7.0414096808        7.5152575435       30.7214301084
  H         5.6123641779        6.6264953826       29.9714881440
  C         6.2945970957        5.9035016280       31.8293400210
  H        -9.3819559780       10.2259905411       24.4692843906
  H        -8.8347980926        8.9382916109       25.2949837001
  C        -9.9072150735       10.3528629820       26.4945991178
  S        -4.1223855150       13.8794084930       36.6545838986
  C        -3.5200960226       16.3580687393       37.5875956688
  H         2.2082442496        6.4874976677       10.7131422800
  H         3.0179926727        7.7492327092        9.8666377226
  H         3.5525788889        6.1434570342        9.4668904974
  H         5.3807896271        5.5956231286       32.4118218251
  H         7.1219254094        6.2081495416       32.4710031247
  H         6.5734050179        5.2077292897       30.9570394410
  H        -9.4344656489       10.4970345706       27.4459855272
  H       -10.8754114119        9.8833081303       26.6256843622
  H       -10.0953015870       11.4000834951       26.3018827969
  C        -4.3833485509       14.3933419691       38.3325244396
  N        -4.1103575084       15.6524194095       38.5950043694
  O        -2.9520396171       17.4471912235       37.7338936906
  S        -5.1029922418       13.4249905001       39.6589567156
  C        -4.3688285718       16.4071194996       39.8301985017
  H        -4.7358888550       17.4313513485       39.4943334188
  H        -5.3454762881       16.0884878369       40.2207725121
  C        -3.1582481841       16.4865098876       40.6705868566
  H        -2.7256010482       15.5534270752       41.0079952630
  H        -2.3650880530       16.9407496123       40.2360296479
  H        -3.4629426395       16.9268316556       41.6652554302
  H         7.8564557171       10.9130591156        3.3201117074
  C         8.2089161073       10.0297675569        3.5081189616
  H         7.5485165434        9.3094064766        3.6615360398
  C         9.0111485023       10.1416442618        4.8281930757
  C         9.0911442089        9.7807977393        2.3074541922
  C         8.1570092771       10.4546691722        6.1180919033
  H         9.4219644973        9.2396619614        4.9974501689
  H         9.7989653646       10.8279537423        4.7484397494
  H         8.4402821736        9.9226867497        1.4207955586
  H         9.7047654247        8.7842024893        2.3645143702
  H         9.8143244867       10.5865106796        2.0966841533
  C         7.4066613612        9.2863304445        6.7793219515
  H         8.7405538352       10.9326910516        6.9146133051
  H         7.5182231677       11.1966792924        5.8611428592
  C         6.5636157623        9.5760960951        8.0252502373
  H         8.1766387058        8.6750356044        7.0922698356
  H         6.8262774143        8.7960083171        6.0004767105
  C         5.4374342230       10.6281365434        7.8802770096
  H         7.2410724641        9.8231516746        8.8528912844
  H         6.1083077535        8.7074437849        8.4865263571
  C         4.1788632881        9.7742954438        7.3689126820
  H         5.1912379399       11.0365333001        8.9560447056
  H         5.8195569689       11.2979441145        7.1621039238
  C         3.0104448517       10.6725915602        7.0424204306
  H         4.0245042118        8.9914505117        8.2300149778
  H         4.5218832724        9.2334412697        6.4176954828
  C         3.3352561835       12.0653933318        6.2763224471
  C         2.5138667298       11.4607020560        8.2510651341
  C         1.8783469240        9.8512860764        6.3284281166
  C         3.1000490657       13.2326052699        7.0351720425
  C         3.8845876395       12.5199943450        5.0501445797
  C         2.6302727981       12.8441992837        8.3265376294
  C         2.1583189614       10.9100047374        9.3986796771
  H         2.2958301898        9.5282871168        5.3692569563
  H         1.7101258904        8.9085040320        6.8695779075
  C         0.5438601795       10.6287336766        6.0377892355
  S         3.4822339314       14.7049042705        6.4204155326
  C         3.9954980630       13.8695335103        4.9524417463
  H         4.2303483820       11.8613767989        4.3071693092
  C         2.2677453744       13.4733509812        9.4866104395
  H         2.2085352461        9.7580260976        9.4349739790
  C         1.7271983052       11.5080185928       10.5610339870
  H         0.8082962284       11.6422208596        5.7337303233
  H         0.0965124357       10.8665597290        7.0757459269
  C        -0.4826601817       10.0787011497        4.9043313010
  C         4.4150427139       14.5261167013        3.7482234227
  C         1.8180766232       12.8767948695       10.6437218284
  H         2.3110401861       14.5896526188        9.3993399869
  C         1.3024683601       11.1095909964       11.8165800521
  H        -1.4108339905       10.6686929813        4.8931368683
  H        -0.6440055347        9.1704413862        5.5799138944
  C         0.1447781358        9.8986533498        3.5661606260
  C         4.3652663959       15.9767673324        3.4490658280
  C         4.6955799132       13.7047955986        2.5561911448
  C         1.3177414544       13.6037731972       11.9191788994
  C         1.0245152816       12.2243003999       12.6362107894
  S         1.0589416431        9.5679594838       12.4765256578
  H         0.7711320042        8.9835549160        3.5041156806
  H         0.6806190014       10.6913517723        3.3117743331
  C        -1.0013051615        9.6867529059        2.4755966432
  N         4.0116184568       16.9286049286        4.3641793236
  C         4.5144431247       16.5763244624        2.2408367214
  C         4.8773978080       14.3404992986        1.3030429541
  H         4.7643788365       12.6519072535        2.5859576717
  C         0.0735640064       14.3253805884       11.5174330120
  C         2.3246128846       14.4201440223       12.7797906878
  C         0.6833326509       11.8525418703       13.8936310257
  C         0.6441366743       10.4664451448       14.0253794335
  H        -1.4786077159        8.7539630831        2.7307119706
  H        -1.6311640547       10.5020614258        2.6920889717
  C        -0.4471268649        9.5655664584        1.1400765293
  S         4.0376013934       18.4103841954        3.7630121682
  N         4.4832751301       17.9519616333        2.2964800486
  C         4.7994280758       15.7781256976        1.0950844154
  H         5.1416534195       13.7122704881        0.6140022306
  H         0.2873576540       15.1763272153       10.8200239382
  H        -0.6800587041       14.7614501749       12.3275529721
  C        -1.0964487618       13.5066065883       10.7647622667
  H         2.7075412345       15.2428349528       12.1549371330
  H         1.9617464194       14.9270580417       13.7313688663
  C         3.5643234117       13.6839904080       13.3976749413
  H         0.5464744685       12.5794443045       14.5765389679
  C         0.1581611849        9.7876226040       15.2966557858
  H         0.2063505006        8.7081541923        1.0262391323
  H         0.2389360384       10.5000012292        1.0303099849
  C        -1.5973749479        9.6904765174        0.0456734238
  C         5.0042997490       16.4836821268       -0.2069857771
  H        -0.6870845717       12.9585418727       10.0296777522
  H        -1.2522573283       12.8611622248       11.5269646859
  C        -2.3445699657       14.2111607430       10.3681178717
  H         3.8897240630       13.0787724639       12.6610138090
  H         3.1615390470       13.1460563552       14.1547677068
  C         4.6398509244       14.5845594918       13.9815397046
  C        -0.0463615648        8.3657812184       15.3745707386
  C        -0.0275303943       10.5844629207       16.5063418638
  H        -2.2369094964        8.7346050237        0.0158398951
  H        -2.4023747947       10.4382198898        0.3073713053
  C        -1.0769950084       10.1147706920       -1.3438346198
  H         4.6808893186       17.4430190074       -0.2915379420
  C         5.3113572561       16.0254909963       -1.4549606212
  H        -2.1724137784       15.0534769610        9.6321934075
  H        -2.7518237606       14.9224801246       11.2310333107
  C        -3.3757685442       13.2029622683        9.8338208956
  H         5.2588563366       15.0143362065       13.1744997993
  H         4.1556324459       15.3477582977       14.5805038784
  C         5.6598182941       13.7499734909       14.8443357865
  N         0.2268598357        7.4775995868       14.3669022743
  C        -0.3857541048        7.7420072148       16.5118584197
  C        -0.4102843873        9.9434903637       17.6663100298
  H         0.1167119134       11.6474532680       16.4821999364
  H        -1.8291649398       10.6348818240       -1.8149376076
  H        -0.8392880229        9.1058966844       -1.7916471580
  H        -0.1862847733       10.7038138035       -1.3747701739
  S         5.6699100740       14.3846342500       -1.9107968681
  C         5.3119206745       16.9791633686       -2.5321886889
  H        -3.0353939866       12.5653904373        9.0660570973
  H        -3.5468460895       12.5965382674       10.6458184225
  C        -4.7088922996       13.7970958238        9.5352074744
  H         5.5949605278       12.7222646858       14.4468895635
  H         5.3493787841       13.8605895261       15.8348905245
  C         7.1663289910       14.1640850455       14.6571686354
  S         0.1030689829        5.9359359796       14.8799727802
  N        -0.4875891748        6.3277051053       16.3167769721
  C        -0.5342973670        8.4857430950       17.7221962865
  H        -0.4764290803       10.4313712667       18.5830785820
  C         5.9156639219       15.1167381117       -3.5189713743
  N         5.8973385249       16.4547411266       -3.6146206921
  O         5.2383714452       18.2284615500       -2.4013401859
  H        -5.0970425999       14.3713920546       10.4401655081
  H        -4.5714289356       14.5765715015        8.8117412607
  C        -5.6538277998       12.6772669180        8.9537018384
  H         7.8478809803       13.5322598612       15.3070437900
  H         7.5524605106       13.9744021137       13.6429674620
  C         7.3948759895       15.5991321366       15.1101974600
  C        -0.8342218663        7.6727921021       18.9447917458
  S         6.4313192721       14.2110683281       -4.9854874345
  C         6.2029485138       17.2826370360       -4.8085370262
  H        -5.2701074295       12.4329596740        7.9365027931
  H        -5.8287340255       11.7211728279        9.5320653961
  C        -6.8785983251       13.3728872242        8.5520444555
  H         7.8521072938       15.6021540977       16.0122267908
  H         6.5904289970       16.1623076794       15.2277378882
  C         8.3264895765       16.4254837977       14.2213984999
  H        -0.6193158519        6.6288474029       19.0907691590
  C        -1.3727434788        8.0169547257       20.0960269551
  H         7.1489348645       16.8453028950       -5.2457230015
  H         6.3490052370       18.2291054726       -4.3642087176
  C         5.0156991835       17.1657738797       -5.6641930419
  H        -7.4672375350       12.8219614478        7.8212870296
  H        -6.6843473680       14.2398705594        8.2420063510
  C        -7.8632737991       13.2649917839        9.7670672282
  H         9.4583601384       15.9885657113       14.3849490899
  H         8.0780482548       16.3263682101       13.0866242531
  C         8.3379275470       17.8721658954       14.4591244338
  S        -1.9634708728        9.6490767106       20.5544057555
  C        -1.5485942792        7.0048037218       21.1342353679
  H         4.7767228566       16.1796275164       -6.0765023478
  H         5.1009812666       17.7977649066       -6.4766587043
  H         4.1507810289       17.6085050517       -5.2811526805
  H        -8.8729774052       12.9785244539        9.3461093916
  H        -7.5013574142       12.5157592596       10.4157080826
  H        -8.0005667584       14.1441598822       10.3723563281
  H         9.3071670705       18.2179250985       14.0663749604
  H         7.4571393237       18.1112502224       13.9442071783
  H         8.4371133762       18.0554193919       15.5049733969
  C        -2.3479894841        8.8658907421       22.0527037826
  N        -2.2483670274        7.5578852217       22.2163372700
  O        -1.0431066284        5.8555636678       21.1855134245
  S        -3.1136222978        9.6303429975       23.4581634444
  C        -2.3853206187        6.7566455584       23.4715119186
  H        -2.6210187541        5.7323422262       23.1236389461
  H        -3.3643179275        7.0121417205       23.8143045065
  C        -1.0836363103        6.7838387611       24.3253763911
  H        -0.2665020258        6.5328578258       23.5784571762
  H        -1.1404123899        5.9439210817       25.0082558740
  H        -0.9442802277        7.8063153822       24.9584155705
