352
i =
  H        -3.0570647512       15.4564389762       16.7755812600
  C        -2.9877408481       14.3479542506       16.5900217292
  H        -3.9140949135       13.8258128261       16.8684216938
  C        -2.0173915128       13.6770187699       17.6115061538
  C        -2.4988550790       13.9401079750       15.2578082037
  C        -2.6690560861       13.6195650800       18.9661574261
  H        -1.8797202120       12.6187414070       17.4320327216
  H        -1.1255952591       14.2730884877       17.5683332905
  H        -2.7601075515       12.9109642987       15.0972299847
  H        -3.0150606268       14.4645684845       14.5456320996
  H        -1.4219485784       14.0983086004       15.1571891066
  C        -1.6699967561       13.2166662414       20.0392244436
  H        -3.4174433303       12.8357371996       18.9588869699
  H        -3.0017798111       14.5485985194       19.0100766118
  C        -2.2562852413       12.9103080184       21.3524379261
  H        -1.3142299134       12.1951854747       19.8922934610
  H        -0.7088080345       13.9373112060       20.0639860360
  C        -1.2174665363       12.5963480364       22.3333285017
  H        -2.8492024104       11.9304541661       21.1672389254
  H        -2.9651280080       13.6997418670       21.5755263197
  C        -0.0495339954       13.5710040180       22.7176836436
  H        -1.6134050791       12.3010284703       23.2782508766
  H        -0.7797528127       11.6904101426       22.0108713747
  C         1.0789250667       12.9105208239       23.4401980302
  H         0.4788874725       13.9330925931       21.8067991364
  H        -0.4434223950       14.4070984729       23.2246713520
  C         1.5149313885       11.5292518981       22.7881297632
  C         0.6205803817       12.2082590847       24.6997992582
  C         2.2763979578       13.8542573746       23.6038736696
  C         1.2397158821       10.4508001067       23.6536067125
  C         2.0203528744       11.1643631052       21.5286514841
  C         0.7253832398       10.8690406956       24.8766136238
  C         0.2257457754       12.9066314264       25.8365531675
  H         2.5606023322       14.1499721884       22.6135221084
  H         1.9280796783       14.5686513351       24.3347161873
  C         3.6056006751       13.1824579479       24.0968031633
  S         1.5552302593        8.9375272005       22.9519391510
  C         2.0831226976        9.7536615604       21.3967567179
  H         2.1306681242       11.9412591204       20.7693794986
  C         0.1550608541       10.2757364157       25.9967643249
  H         0.1412289566       13.9523955372       25.7592591003
  C        -0.1922641954       12.3235070623       26.9937053681
  H         3.8619967250       12.1705925587       23.7842488647
  H         3.5114660565       13.1240773843       25.2296787925
  C         4.9009090604       14.0419828495       24.1016952634
  C         2.5506834532        9.0042614908       20.1475638570
  C        -0.3237334590       10.9623503859       27.1104221689
  H         0.0793628240        9.1994247954       26.0054850367
  C        -0.7543010714       12.7193684630       28.2154930155
  H         5.5226017994       13.5468708574       24.8173019402
  H         4.5173477836       14.8640568502       24.5801505286
  C         5.5983416354       14.3613469311       22.8044277432
  C         2.3766575543        7.5919102449       19.8973668902
  C         3.0270627636        9.7905624561       18.9816652291
  C        -0.8649307333       10.3635376542       28.3629901990
  C        -1.0988263069       11.6973488383       29.0451907150
  S        -0.9672839521       14.2653069510       28.9597215419
  H         6.2973283413       15.1631906017       22.9296135022
  H         4.7202046995       14.6093271596       22.0948633574
  C         6.1596441530       13.1351880572       22.2305064037
  N         2.0515253439        6.6277632531       20.9228730910
  C         2.5465746694        7.0518793509       18.6899739567
  C         3.0841706849        9.1876143349       17.6709288258
  H         3.2301123158       10.8297335424       18.8828659670
  C         0.0912416234        9.5564415700       29.2072674938
  C        -2.1847657928        9.6466473123       28.0772861710
  C        -1.4547756531       12.1582542147       30.2935097865
  C        -1.3537257497       13.4775341905       30.4430647696
  H         6.5456508189       12.3658677217       22.9706436823
  H         5.2699344235       12.6100507157       21.7487442042
  C         7.3628227382       13.4626488729       21.2489456518
  S         1.8461983116        5.2058497781       20.2452568473
  N         2.3162791579        5.6202793135       18.7927277497
  C         2.8158592699        7.7811978150       17.4684590951
  H         3.4602549531        9.7910990881       16.9247163608
  H         0.4125282929        8.7369884097       28.4570155935
  H        -0.4068137829        9.1732766377       30.0663699567
  C         1.3543089125       10.2774551351       29.7961910197
  H        -2.0370925822        8.6044929172       27.8524365422
  H        -2.5761165064        9.5291443562       29.0442498373
  C        -3.3132587024       10.4400015912       27.3328988799
  H        -1.7008142706       11.4491206417       31.0064024844
  C        -1.7114090336       14.2128861184       31.7509437039
  H         8.1769600304       12.8780677012       21.2287174583
  H         7.7378712497       14.4761632462       21.4697386151
  C         6.9707536132       13.4737228927       19.8003884369
  C         3.0493306280        7.1097098588       16.2791503813
  H         1.7409517711       10.9067538905       28.9060131029
  H         1.1450907989       10.9361338968       30.7866547658
  C         2.4820256961        9.4135077166       30.2242561847
  H        -2.8127864540       10.8908707700       26.4877260120
  H        -3.6580948481       11.2512326246       28.0656048122
  C        -4.5128973382        9.5587491272       26.8147676929
  C        -1.7895176775       15.6017793074       31.9090795110
  C        -1.8977707366       13.4854688007       33.0505889584
  H         6.5342963627       12.5230482545       19.5403456921
  H         6.0904334365       14.2337649826       19.8082945545
  C         8.1350706852       13.8388115698       18.8098884226
  H         2.6852757451        6.0972455161       16.3181482595
  C         3.4070062433        7.3993436714       15.0083001271
  H         2.7773753216        8.6874377992       29.3841688018
  H         2.1752823180        8.7460277209       31.0186484765
  C         3.8132625455       10.1912005855       30.5891694804
  H        -4.0271635864        8.7041361408       26.2142052119
  H        -5.0695525720        9.2168866396       27.7463656463
  C        -5.4699967494       10.3111151108       25.8951794600
  N        -1.6035586772       16.4724077875       30.8401401951
  C        -2.0514024209       16.2813974500       33.0902893557
  C        -2.2094742616       14.1509305436       34.2403053497
  H        -1.8425152956       12.3512285781       33.0607392157
  H         8.7721581920       14.6299420828       19.3468242615
  H         8.8076671057       13.0506150531       18.3945284863
  H         7.6241807277       14.2715735395       17.9035954871
  S         3.6001355192        8.9647019022       14.3120683227
  C         3.4510137669        6.3103168003       14.0141064734
  H         3.7730195963       11.2045964986       30.1126523884
  H         3.8483331389       10.3636235089       31.6450436169
  C         4.9573028270        9.2883787505       30.1446560724
  H        -4.9392307521       10.7882400715       25.1533873391
  H        -5.9806120797       11.0893801479       26.4641490933
  C        -6.5050154958        9.3694045685       25.3632601531
  S        -1.7565700619       17.9950930242       31.3481209811
  N        -2.1044685810       17.6675202643       32.8805331476
  C        -2.2948473256       15.6156033966       34.3483087233
  H        -2.4309167011       13.5374776014       34.9801238210
  C         3.9568396717        8.2398370545       12.7164299607
  N         3.6323448071        6.8599558100       12.7287801008
  O         3.0405325708        5.2225167007       14.1811368686
  H         5.9529985876        9.8680661143       30.3612404583
  H         4.8721649563        9.1733614951       29.1020979718
  C         5.1431898097        8.0267721244       30.8673232728
  H        -6.1684910539        8.7610158675       24.5097224090
  H        -6.9505460663        8.6768442113       26.0966207816
  C        -7.8212105176       10.0440056693       24.8006799072
  C        -2.4987980974       16.4083370849       35.5114632283
  S         4.4455663358        8.8814836337       11.1254343405
  C         3.5416297196        6.0570048014       11.4305818145
  H         5.4928248191        8.4442715450       31.8907969174
  H         4.1554504714        7.6133948705       30.9825922756
  C         6.0129016987        7.0253572239       30.1389742205
  H        -8.2293150823        9.5742956333       23.8591465813
  H        -7.4327889537       10.9859278132       24.7750336343
  C        -8.9979116874        9.9100197565       25.6953324924
  H        -2.3004037742       17.4400357482       35.4317781231
  C        -3.1282723688       16.0044593693       36.6934169003
  H         4.3348814008        6.3795347030       10.7023271561
  H         3.8203330001        5.0705489661       11.6561847536
  C         2.0487212465        6.0078349916       10.8335146026
  H         6.8927793679        7.5860180520       29.8341498805
  H         5.5128046937        6.7244038415       29.1668372384
  C         6.5144663487        5.9195308463       30.9742582525
  H       -10.0174377893       10.0335650151       25.1504957098
  H        -9.1754402978        8.8340180306       25.9318650000
  C        -9.0301106475       10.7129628559       26.9395682018
  S        -3.8326512022       14.4782115495       37.2008712445
  C        -3.1075539571       17.0950200620       37.8195069779
  H         1.5654466250        7.0375989696       10.5377620265
  H         2.0894014861        5.3930704124        9.8993194183
  H         1.2763132594        5.4830247475       11.4429619808
  H         5.7701525586        5.3360953515       31.5909594608
  H         7.1622494874        6.4296892883       31.7525406146
  H         7.3159200592        5.2507177824       30.5172702188
  H        -9.0311485406       10.2715559596       27.9142251827
  H        -9.7915651540       11.5028804979       27.0532104468
  H        -8.0177573305       11.1050544836       26.9619497100
  C        -3.7530424101       15.1431211342       38.8964705116
  N        -3.4819866644       16.4731802152       38.9332057394
  O        -2.6240041935       18.1974475314       37.6256533347
  S        -4.2856466424       14.1892420181       40.2647155720
  C        -3.3425196968       17.2988567063       40.2480645207
  H        -3.9386463199       18.2065464827       40.1544315841
  H        -3.7086366225       16.6318182983       41.0418361941
  C        -1.8951100435       17.7575052945       40.5569320383
  H        -1.5387347371       18.5308610615       39.8815852408
  H        -1.7965859765       18.1619735777       41.6028652452
  H        -1.0934013821       17.1385037697       40.2802832782
  H         7.2012126110       10.8551639942        3.4512307199
  C         7.9737507155       10.1787019246        3.5975247497
  H         7.5422955645        9.2373181845        3.6853117251
  C         8.6948584338       10.4318752948        4.9270338498
  C         8.9064340038       10.1879258305        2.3549995481
  C         7.9360630660       10.7053553992        6.0926499419
  H         9.2438142331        9.5521385076        5.3027691963
  H         9.4868397497       11.0964185061        4.8385019557
  H         8.4020137993       10.1686290253        1.4085922034
  H         9.6302366061        9.3909564565        2.3695418495
  H         9.5418247867       11.1093553277        2.2594450496
  C         7.0983358135        9.3742436846        6.4891518288
  H         8.7412260730       11.2772644782        6.6536063204
  H         7.3238283405       11.5792636971        6.0759446864
  C         6.3042535860        9.5572129700        7.8090214289
  H         7.8464157705        8.6929954308        6.7895129197
  H         6.4234142427        9.1489931759        5.6292698240
  C         5.0835867922       10.4314896404        7.6032364154
  H         6.9229262026       10.1436004817        8.4898883540
  H         6.1214545912        8.6337145682        8.4472906025
  C         3.8095874935        9.7428427969        6.9688532531
  H         4.7968305531       11.0451431919        8.4991098649
  H         5.4053730958       11.1850010832        6.9115770829
  C         2.5916631925       10.6377021003        6.9565558958
  H         3.7424214807        8.9149616697        7.8018885847
  H         4.1623816983        9.3447132421        6.0355978108
  C         3.0383788467       11.9481295823        6.2490281415
  C         2.3917817446       11.2959667338        8.2432560534
  C         1.4332470219       10.0504574596        6.3958247645
  C         2.9945581163       13.0376985053        7.0914559972
  C         3.4081086445       12.3532165415        5.0043807342
  C         2.4602946399       12.6603583087        8.2932437145
  C         2.0109312032       10.7255195050        9.4724854326
  H         1.7217299099        9.5848086801        5.5575093399
  H         1.2766468707        9.3004786099        7.1590321340
  C         0.0956771161       10.9099800814        6.1309745366
  S         3.4231010796       14.5611898897        6.4245113131
  C         3.7671262526       13.6685238819        4.8848999465
  H         3.4010399527       11.6820769832        4.2067790879
  C         2.1761579623       13.3148265366        9.4796918323
  H         1.8159184498        9.6236789607        9.5067322088
  C         1.8189569326       11.3497399911       10.6857878011
  H         0.5449165408       11.7341884606        5.6703909396
  H        -0.1857645689       11.2164848063        7.0925787282
  C        -0.9661227816       10.2961889515        5.2263490919
  C         4.1631299447       14.2992874365        3.5742093443
  C         1.8056186563       12.7324316162       10.7160849109
  H         2.1265917070       14.4063411922        9.4544573967
  C         1.3294452892       10.9692373096       11.9100880000
  H        -1.8354074626       11.0911428255        5.3180916445
  H        -1.3965033478        9.4188011448        5.7239991343
  C        -0.3604075052        9.9386899562        3.8961182859
  C         4.2794424076       15.6818526201        3.3260702254
  C         4.5550415988       13.4786460490        2.4464785124
  C         1.3727647529       13.3895746588       11.9973171170
  C         1.0599444599       12.0388437153       12.7135677655
  S         0.8655801082        9.4642937761       12.5343353130
  H         0.0443749095        8.9897714785        4.0590732413
  H         0.4924673388       10.5626896083        3.6559145079
  C        -1.1735751364        9.8830175431        2.6178986216
  N         4.0987942241       16.5658071943        4.3097824635
  C         4.5579613251       16.3092014359        2.1592520920
  C         4.8864100409       14.0108313660        1.1799869672
  H         4.4965987899       12.4320706415        2.4151496170
  C         0.1030001077       14.2515366040       11.7551432211
  C         2.5163666616       14.1064899950       12.8036152203
  C         0.7133504649       11.6237822695       13.9892028706
  C         0.5956295436       10.2982393920       14.0805293056
  H        -2.1662292031        9.3846667095        2.9037977182
  H        -1.3397683957       10.9102673773        2.3086435675
  C        -0.6102245648        9.4485501123        1.3863129970
  S         4.1284605449       18.1116944348        3.8023017490
  N         4.4564881186       17.7633670950        2.1986298173
  C         4.7809937273       15.5407219582        0.9825221222
  H         4.9149208802       13.2117084047        0.4254747479
  H         0.3886287193       15.0122771616       11.1015509709
  H        -0.1019731235       14.7829480344       12.7343449937
  C        -1.1591880274       13.5023004050       11.1740140676
  H         2.6679257867       14.9078343478       12.0310571739
  H         1.9157504855       14.4822867563       13.6497514957
  C         3.7786042135       13.2586447824       13.1748884327
  H         0.5280147730       12.3299887292       14.7319599259
  C         0.0850488086        9.5249720155       15.2864363311
  H        -0.1847331517        8.4132659391        1.3832465047
  H         0.1327754467       10.0234202018        1.1691159609
  C        -1.6042466133        9.3369145284        0.1221729506
  C         5.1358350951       16.2288998084       -0.2814075814
  H        -1.0483476687       13.3525629073       10.1104124634
  H        -1.2971405666       12.6481166158       11.6416739548
  C        -2.5160519428       14.1604584356       11.1876588882
  H         4.3371846875       12.7914335007       12.3552671645
  H         3.4853770489       12.5199105430       13.8886562335
  C         4.9015678462       14.1052407730       13.7761370291
  C        -0.0370358032        8.0448484524       15.3982748735
  C        -0.0850196357       10.2303694377       16.5862799895
  H        -2.5623755512        8.9431482460        0.3818841653
  H        -1.9155750611       10.2895724188       -0.2167161871
  C        -0.9343445477        8.7538884049       -1.1632584347
  H         4.8995713168       17.2080864424       -0.2760791742
  C         5.5133745681       15.7275360102       -1.5097378972
  H        -2.5758055997       15.1217714583       10.6933367344
  H        -2.7469648844       14.2783902777       12.2646979438
  C        -3.6460622625       13.1830796708       10.6750943977
  H         5.4068084597       14.3688215023       12.8665700593
  H         4.4217957071       14.9225955851       14.3895737097
  C         5.9734120399       13.2981435750       14.6144999829
  N         0.0558610436        7.1865868696       14.3853429471
  C        -0.3783752742        7.4591392785       16.5889038177
  C        -0.3197567041        9.6262063706       17.8225011358
  H        -0.0319926388       11.2748602732       16.6332247953
  H        -1.6239263493        8.0255120540       -1.4972635799
  H         0.0450013431        8.4101124172       -1.0493533672
  H        -0.9971524418        9.6278492875       -1.7776128615
  S         5.8053513895       14.0884618245       -2.0333973376
  C         5.6727943441       16.7995236961       -2.6168830317
  H        -3.4234450620       12.7446383048        9.7163583182
  H        -3.8445391094       12.3728712202       11.2794723116
  C        -5.0171606327       13.9239904760       10.4374433253
  H         6.0429756014       12.2252903218       14.2776042568
  H         5.7273339594       13.3251095633       15.6245010945
  C         7.4138703617       13.7921831743       14.3948521804
  S        -0.1369181511        5.7019962852       14.8723943310
  N        -0.5457666244        6.0436130938       16.4593376294
  C        -0.5684260981        8.1304005422       17.8216583160
  H        -0.3648335484       10.3085288907       18.6405317838
  C         6.0637403819       14.8160060653       -3.6102095872
  N         5.9600339118       16.1963324168       -3.7012131037
  O         5.5439931061       17.9954849457       -2.4151784189
  H        -5.6531453057       13.8563332409       11.3856209945
  H        -4.8332626025       14.9169745755        9.9199681521
  C        -5.7631792427       13.2473262923        9.3738136362
  H         8.1301670603       13.2618730807       15.0069444521
  H         7.6871565262       13.4119139208       13.4002683000
  C         7.7328837591       15.1500174590       14.9783977108
  C        -0.9386536313        7.3419998688       18.9325950964
  S         6.3665127396       13.9263048933       -5.0106191915
  C         6.0939402392       16.8021362219       -5.0216301126
  H        -5.3865043670       13.1054286657        8.3516385096
  H        -5.9583763458       12.2101155905        9.6429932859
  C        -7.1764917200       13.9152798439        9.1495609921
  H         8.6764693269       15.3729436019       15.4097054861
  H         7.0134470198       15.2919379554       15.8379410159
  C         7.4688891355       16.3099028875       13.9990570237
  H        -0.7655603529        6.3655452806       18.7848735097
  C        -1.2522460775        7.6341176743       20.2656699933
  H         6.7332337746       16.2259030027       -5.7645477891
  H         6.3286062095       17.8097195088       -4.9357307872
  C         4.7850390888       16.7818215523       -5.6926477270
  H        -7.4799516900       13.5548835225        8.2131246964
  H        -6.7742778267       14.9829231240        8.9626881783
  C        -8.1669627762       13.8495334767       10.2547686166
  H         7.9977641219       16.2123815508       12.9597051983
  H         6.4938274964       16.3836231571       13.7378998800
  C         7.7464257790       17.6930374465       14.6683468309
  S        -1.6554403623        9.1351482371       20.8607007478
  C        -1.3672261574        6.4615722756       21.2131356814
  H         4.2354332097       15.8838532629       -5.5523303820
  H         4.8311557003       16.7199646249       -6.8301853006
  H         4.0505265699       17.6163383562       -5.3863418621
  H        -7.8317608634       14.4858075841       11.1139048691
  H        -9.1649659360       14.1808449872        9.9010656198
  H        -8.4421570624       12.8320459728       10.5599406944
  H         8.6870154437       18.1671182816       14.3531178464
  H         6.9406195010       18.3667060737       14.3768498464
  H         7.7729121887       17.5673933253       15.7789559985
  C        -1.6977530877        8.2820320689       22.4175112017
  N        -1.6493000231        6.9265464341       22.4192227431
  O        -1.2973480366        5.3143948919       20.8731592371
  S        -2.3715912171        9.0524178707       23.8222213192
  C        -1.7142823618        6.0445015274       23.5466283997
  H        -2.1237285748        5.0886381149       23.1109743309
  H        -2.3237297435        6.3552756410       24.4106354202
  C        -0.4008274856        5.8500275277       24.1933933769
  H        -0.4591396925        5.2328736984       25.0632777470
  H         0.3142246083        6.6369984711       24.3673821730
  H         0.1457788273        5.3151731618       23.5121264930
