352
i =
  H        -3.7541501964       14.1262523205       16.0865418998
  C        -3.4260484418       13.0785539039       16.1279078045
  H        -4.2931602824       12.4235352396       16.2202901543
  C        -2.4948056590       12.9222510328       17.3463969329
  C        -2.7004136142       12.7554289858       14.8386528232
  C        -3.0950731797       13.4565067816       18.6629662440
  H        -2.2338478618       11.8939213946       17.4606137197
  H        -1.5692445601       13.4135500112       17.1844552118
  H        -3.2065473852       13.3679527249       14.1362282040
  H        -1.6746108945       13.1521557791       14.8740601215
  H        -2.7194775730       11.6684886916       14.6146053351
  C        -2.4671743506       12.7137212919       19.7809035531
  H        -4.1856398354       13.3101357376       18.7887214203
  H        -2.9799348026       14.5783725403       18.6093339802
  C        -2.8639238404       13.1814714237       21.2511063248
  H        -2.6540019698       11.7005114405       19.6476182258
  H        -1.3764462719       12.7373106589       19.6708085717
  C        -1.9925449029       12.6634224525       22.4154951519
  H        -3.9186983066       12.7783453572       21.4060891449
  H        -2.9329680155       14.1979355509       21.2664819211
  C        -0.6637458398       13.4690233480       22.5861490091
  H        -2.4442142327       12.5072166582       23.3635146011
  H        -1.7222724064       11.6777467999       22.2902752860
  C         0.5101741850       12.7350815808       23.2729670405
  H        -0.1609880915       13.7961894564       21.6410253858
  H        -0.8862632122       14.4006147290       23.1649961633
  C         0.8764559701       11.4158666254       22.5319526618
  C         0.1710736058       11.9967797785       24.5627492452
  C         1.7433989254       13.7497530746       23.3574603830
  C         0.7801029849       10.2879948471       23.3702415921
  C         1.3503143380       11.0726884788       21.2867063179
  C         0.3817623957       10.6545983110       24.6513033712
  C        -0.2505971838       12.6462412956       25.7394344580
  H         1.9174052424       14.0001566017       22.3450897156
  H         1.5518787416       14.7223993905       23.7833337283
  C         2.9551390254       13.1519531006       23.9511210448
  S         1.0886054393        8.8125253319       22.5781162207
  C         1.5612853560        9.7127151257       21.2330911310
  H         1.5512063765       11.7700616916       20.4628656452
  C         0.0862193753        9.9544224433       25.8112342104
  H        -0.4020262970       13.6835161693       25.8634595977
  C        -0.4720068307       11.9242125536       26.9423773140
  H         3.4517532807       12.4742215116       23.2405658465
  H         2.7233198014       12.5833903654       24.9128358987
  C         4.0405240662       14.1724314487       24.3638626348
  C         2.1029226341        9.0546172929       20.0301312559
  C        -0.3225684620       10.5558327850       27.0213196344
  H         0.1993078145        8.9354925317       25.9632259928
  C        -0.8832742995       12.3053101857       28.1987424573
  H         4.7647899946       13.6418976642       25.0264242204
  H         3.7289422948       14.9995857427       25.0298814011
  C         4.9071626324       14.7180210849       23.1709053293
  C         2.0493346801        7.6747354970       19.7868949973
  C         2.6243285932        9.8560405139       18.8782314788
  C        -0.7519391597        9.8380870591       28.2751068432
  C        -0.9912112674       11.1740690750       28.9957532310
  S        -1.2736748117       13.8375435461       28.9345870998
  H         5.6723605603       15.2999096961       23.7710341202
  H         4.2761316360       15.3314023964       22.5081006290
  C         5.5751005141       13.6178935272       22.2931903023
  N         1.7288978158        6.7503780070       20.7802947387
  C         2.3440551619        7.0681845652       18.5980020889
  C         2.8375732653        9.3094935843       17.6207792653
  H         2.8823905052       10.8962083315       19.0313919261
  C         0.3208597866        9.0422347922       29.0608544861
  C        -2.0413977222        9.0350893472       28.2249473350
  C        -1.3836332195       11.5561983145       30.2352052788
  C        -1.5428343369       12.9225157132       30.3667023303
  H         6.5537748120       14.0081671170       22.1961592996
  H         5.7091280224       12.7542373050       23.0243947180
  C         4.9390306679       13.0965185078       20.9443291194
  S         1.8644165419        5.2476482056       20.2046643946
  N         2.3553172823        5.6847463207       18.6999233425
  C         2.6635051044        7.8594110041       17.4555617604
  H         3.2792438804        9.9223771995       16.9107786740
  H         0.5609553438        8.0337776078       28.6827392398
  H        -0.0049870051        8.6296337107       30.0702595439
  C         1.5593135905        9.8728889605       29.4318856947
  H        -1.9281800585        8.1027730474       27.7533950723
  H        -2.3484880425        8.8356662700       29.2002767987
  C        -3.2157884956        9.8357521063       27.5877229068
  H        -1.5404246511       10.7484540830       30.8917064758
  C        -2.0106412585       13.6578146800       31.5879652150
  H         4.0620951659       13.6375925966       20.6424165750
  H         4.5995406822       12.1104249093       21.1625900287
  C         6.1030744490       13.1644610361       19.8373111276
  C         2.8633491655        7.1020855636       16.2179576617
  H         1.9970625029       10.2845211334       28.5430626584
  H         1.2010671096       10.6801372539       30.0512342654
  C         2.6812341634        9.0443705207       30.0861871210
  H        -2.9500608986       10.3204927597       26.5990305486
  H        -3.5369096535       10.6771585331       28.1440172638
  C        -4.4727651304        8.9953073336       27.3785333660
  C        -2.1384533367       15.0719524433       31.7411788982
  C        -2.2206577301       12.9155226993       32.8196321910
  H         5.7531876471       12.7368212033       18.8576763809
  H         6.4582228261       14.1987936248       19.7478071888
  C         7.3557401798       12.3119172172       20.2417569672
  H         2.6783059386        6.0470242390       16.1994453296
  C         3.3086961773        7.5101480328       14.9739506854
  H         3.1273013187        8.4598285380       29.2614179527
  H         2.3170187200        8.2875508794       30.7745122216
  C         3.8128942521        9.7808813285       30.7774311892
  H        -4.3124168815        8.1874139740       26.6248587395
  H        -4.8080850165        8.5274827442       28.2784400664
  C        -5.5353575061        9.9264097037       26.7517319876
  N        -2.0185662930       16.0440939868       30.7097480408
  C        -2.5041794145       15.7056239533       32.9213597291
  C        -2.6042142676       13.5630491379       34.0521230393
  H        -2.0381064977       11.9073745818       32.7822091472
  H         7.1829668593       11.5407505220       21.0038902958
  H         7.6988926119       11.8408044936       19.2732233217
  H         8.1430999180       12.9764002797       20.5759163036
  S         3.5169396239        9.0830097827       14.4385845169
  C         3.6069768004        6.4924305311       13.9344318103
  H         4.0710474182       10.7720192247       30.3801570844
  H         3.5251166907        9.9010240841       31.7857548058
  C         5.0379537511        8.8894676002       30.6194541996
  H        -4.9550527950       10.5427667481       26.0452320229
  H        -5.9492191660       10.6174637499       27.4591706580
  C        -6.7551506136        9.2018737043       26.1347459594
  S        -1.9384112868       17.4915946397       31.3879909638
  N        -2.3991233320       17.0824610979       32.8648665325
  C        -2.6791215122       15.0398919947       34.1560586300
  H        -2.7139545073       13.0345165448       34.9978062619
  C         3.9625068051        8.5049201969       12.8645730503
  N         4.0223574682        7.1613109246       12.7830285094
  O         3.7066240869        5.3112676539       14.1560790924
  H         5.9783035779        9.4241048849       30.8018920777
  H         5.2420156020        8.7479937338       29.6316719155
  C         5.1444356910        7.6238861160       31.4014863048
  H        -6.2716221195        8.6136726803       25.3154409345
  H        -7.2086416752        8.4451286907       26.8399081180
  C        -7.7137430209       10.2664489912       25.6216449111
  C        -2.8899612529       15.7826532744       35.3112043894
  S         4.3443607070        9.5389634192       11.4691873467
  C         4.1297011347        6.4344228478       11.5007557249
  H         5.7843875117        7.7694711170       32.2343382248
  H         4.2437949271        7.3457820779       31.8331063963
  C         5.6512433038        6.4489301350       30.5137612151
  H        -7.4121226120       10.5954244753       24.7005611376
  H        -7.7441637936       11.1149141437       26.2984796500
  C        -9.1386322945        9.7309607650       25.5229800385
  H        -2.4370360809       16.7755906348       35.2952126472
  C        -3.4977045032       15.4886536685       36.5055684543
  H         4.7170009459        6.9661353325       10.7492960382
  H         4.7310661432        5.5234167413       11.6935018693
  C         2.7319857037        6.0189245507       10.9675307572
  H         4.9467803950        6.1578700010       29.7285708299
  H         5.8349885696        5.6372509317       31.1320928209
  C         7.0578811606        6.6471443606       29.8800794848
  H        -9.6938604148       10.3008043064       24.8108019436
  H        -9.1862175658        8.7341663397       24.9763152772
  C        -9.8718475158        9.8944306918       26.8268832986
  S        -4.2391220571       13.9534410631       36.9226638608
  C        -3.5780643829       16.5366447169       37.5325581111
  H         2.7657237931        5.7914253007        9.8708267907
  H         2.3771011837        5.1929674363       11.4973038526
  H         2.0319496514        6.8423096200       11.0389731026
  H         7.0422154669        7.2188312801       28.9777246617
  H         7.5073007937        5.7047466723       29.5873984097
  H         7.6908276217        7.0257563674       30.7179733668
  H       -10.2791045446       10.9094320776       26.7957189620
  H        -9.1616584714        9.7836047854       27.5809528160
  H       -10.7162788511        9.1886062766       27.0203098067
  C        -4.7270892652       14.7762109708       38.3674177654
  N        -4.2066316140       16.0227893512       38.5220882724
  O        -3.0261232762       17.6429201246       37.5141856048
  S        -5.7195303373       14.0638894174       39.6599970309
  C        -4.2860202550       16.7523982528       39.6993862630
  H        -4.6860232503       17.7783154109       39.6414826502
  H        -5.1151088488       16.3518674941       40.2540238588
  C        -2.9426241895       16.5798359033       40.4407341001
  H        -2.9480727019       15.7817211172       41.1386018345
  H        -2.1911051654       16.2019620323       39.6961796414
  H        -2.5935838245       17.5474503965       40.8719826941
  H         6.6092854488       10.3043044702        3.8601485774
  C         7.4891021000        9.6570509642        3.6358082808
  H         7.0669347601        8.7149747746        3.8556331755
  C         8.6120274086        9.9853271813        4.6457598421
  C         7.8818966812        9.8292892842        2.2177905219
  C         7.9562908968       10.3611065551        5.9426768680
  H         9.1439282678        9.0611186786        4.8427681780
  H         9.3638248108       10.7206356584        4.3547768508
  H         8.9466566719        9.5715758633        2.0474408845
  H         7.7467919931       10.8689144980        1.9926356562
  H         7.2364790549        9.3227124593        1.5408591027
  C         7.3857114140        9.1340705576        6.7496799287
  H         8.5321170719       10.9636284345        6.6380377489
  H         7.0853547413       10.9721952061        5.7275957751
  C         6.7105446734        9.4747117648        8.0526550707
  H         8.1801801991        8.5504996428        7.2139606801
  H         6.7813398988        8.4789934017        6.1398357563
  C         5.4067762326       10.2967347756        7.9220078261
  H         7.3750977962        9.9722484559        8.7089287182
  H         6.4119383333        8.5406249244        8.4880440093
  C         4.1322093996        9.6685835294        7.2802744750
  H         5.1614877350       10.9668052888        8.7798668583
  H         5.6695747568       11.1392360118        7.2284908577
  C         2.8937382514       10.5239626015        7.0824901278
  H         3.8586894694        8.8703516540        7.9931098562
  H         4.5100762055        9.2251863971        6.3421594671
  C         3.1945680240       11.8644965129        6.4574857709
  C         2.4486569369       11.1916809434        8.3870700538
  C         1.6725465345        9.8169392427        6.3930221225
  C         3.0121541811       12.9554683465        7.3149667250
  C         3.7510262846       12.2995042243        5.2250272415
  C         2.5746525051       12.5302927471        8.5587946350
  C         1.8726587095       10.5617085991        9.4382501319
  H         2.1025353432        9.2007762898        5.6146611371
  H         1.2573457591        9.1044890116        7.0178746240
  C         0.5815513166       10.7185580589        5.8355175551
  S         3.3119094515       14.4759501169        6.6084683899
  C         3.8638110501       13.6309758236        5.1818966865
  H         3.9232240924       11.5704525321        4.4451958179
  C         2.1379732448       13.0681522050        9.7091185031
  H         1.8144606910        9.5070677385        9.3633518181
  C         1.4534893649       11.0797800657       10.6378462876
  H         0.8941732078       11.6339017335        5.3294878720
  H         0.0702945298       11.0576867097        6.6912212344
  C        -0.3730361901       10.0061656592        4.7668666314
  C         4.2731948490       14.3743470940        3.9726600071
  C         1.5536156598       12.3677010500       10.7883494402
  H         2.2208232767       14.1341749092        9.7595434940
  C         0.9347918768       10.6353499798       11.8595043912
  H        -1.3136194236        9.7001661611        5.3039617739
  H         0.0670763545        9.0113724758        4.4555991170
  C        -0.7624605166       10.8477814222        3.5867032037
  C         4.2541806922       15.7951591972        3.7660567114
  C         4.7483402315       13.6552257274        2.8022803163
  C         1.1347012023       13.0388982666       12.0166823876
  C         0.7305455326       11.7349832759       12.6997280754
  S         0.4748308847        9.1174869258       12.5838123559
  H         0.1300718009       11.0451690601        3.0439774371
  H        -1.1231275097       11.8356571289        3.8531372692
  C        -1.6974189736       10.0168766432        2.6275747459
  N         3.7184040446       16.6612783198        4.7297004821
  C         4.5595824179       16.3835876212        2.5505248384
  C         5.1170451230       14.2114913777        1.5858313869
  H         4.8220724895       12.6063488958        2.8457641187
  C        -0.1581015902       13.9251597503       11.9083959670
  C         2.3055091957       13.7260486066       12.7650608249
  C         0.2994055720       11.4053090925       13.9689057464
  C         0.1398755405       10.0385413239       14.0670367883
  H        -2.4154882010        9.3284530499        3.1440349830
  H        -2.3550528096       10.6408460997        2.0981583938
  C        -1.0453671268        9.2360624170        1.5554095942
  S         3.7408969359       18.2186023726        4.0781989648
  N         4.3375210369       17.7308588574        2.5358961733
  C         4.9572531635       15.6670779941        1.3915689787
  H         5.4477118484       13.6026718595        0.7786356908
  H        -0.0291085884       14.9675458615       11.5561720519
  H        -0.4009542915       13.9619137876       12.9629874931
  C        -1.2732141805       13.2103410279       11.0897444200
  H         2.8433924301       14.4352549078       12.0752403238
  H         1.8778977361       14.3127119706       13.5755140887
  C         3.2149924725       12.7634678347       13.4885204469
  H        -0.0207673338       12.1593096640       14.6649622221
  C        -0.2656027393        9.2813343132       15.3110132379
  H        -1.6694682801        8.4725921353        1.2113424467
  H        -0.1726758451        8.7419627070        1.9359816087
  C        -0.7628260221       10.0013557796        0.2558746278
  C         5.3112954054       16.3630110451        0.2136755968
  H        -0.9064977859       12.9390415018       10.0456185104
  H        -1.4980189613       12.1938103456       11.3832708900
  C        -2.6334596659       13.9396521313       11.2012018618
  H         3.3040410597       11.8575391564       13.0265716837
  H         2.7941035642       12.5077627914       14.4358566586
  C         4.6584532638       13.3495054260       13.6845288811
  C        -0.2449113136        7.8763579634       15.5379206121
  C        -0.3655875095       10.0257502629       16.5670353990
  H        -1.4106957733       10.9069067587        0.2356887542
  H         0.2047229984       10.3948910489        0.2958226385
  C        -0.8689844944        9.2342598558       -1.0411429797
  H         5.2283680901       17.4819964271        0.3461178643
  C         5.5016059947       15.9416591060       -1.0656133473
  H        -2.8427633756       14.6354899448       10.4580931575
  H        -2.6824539936       14.3641874459       12.1732362580
  C        -3.8518833570       12.9625014677       11.2423340923
  H         5.3436143691       12.9404721949       12.9433185263
  H         4.5708816725       14.3859360138       13.4106914837
  C         5.2560023920       12.9732144291       15.0035591365
  N         0.1379813693        6.9004249120       14.6223305785
  C        -0.5860757646        7.3158566720       16.7277552801
  C        -0.5015854934        9.4447865819       17.8467386658
  H        -0.2661449118       11.1280862148       16.4653510942
  H        -1.5726217838        9.7772585621       -1.5999664930
  H        -1.3406870991        8.2333210178       -0.8987061113
  H         0.0693206167        8.9776860068       -1.5902922075
  S         5.6827723035       14.3251717745       -1.6628512253
  C         5.5926539281       17.0059334314       -2.0915246894
  H        -3.8032692015       11.9454872785       10.7732130279
  H        -4.0695376158       12.9406503818       12.3154947228
  C        -5.0267956854       13.5034594121       10.5505253330
  H         5.5632464193       11.9861819247       15.1710713334
  H         4.3963613121       13.0669815604       15.7044187153
  C         6.4848539306       13.7746663833       15.1912590951
  S        -0.1954377989        5.4144485409       15.2684411851
  N        -0.5994105889        5.9780324344       16.6978674350
  C        -0.7629603597        7.9700889982       17.9814379454
  H        -0.4490667944       10.0777998873       18.7349547388
  C         5.8777950755       15.1382308336       -3.2703623403
  N         5.9167114011       16.4926464338       -3.2655108237
  O         5.3918197119       18.2140662412       -1.8321119893
  H        -5.8187145857       13.7660426290       11.2513788465
  H        -4.8816694561       14.4132116972       10.0430680366
  C        -5.6314502235       12.5331209426        9.4595687818
  H         7.0717546942       13.1876840358       15.9427808291
  H         7.0285597619       13.8293355650       14.2999736317
  C         6.3418558396       15.1992745685       15.7832170026
  C        -1.0119793324        7.2507489959       19.1782094004
  S         6.0380050601       14.2295389200       -4.8436929898
  C         6.0148107157       17.2971711204       -4.4366858780
  H        -4.8475564988       12.1072702503        8.8168581693
  H        -5.9863327635       11.6472139186       10.0150993417
  C        -6.7072739862       13.2636898852        8.6696241719
  H         6.5217342759       15.1634876171       16.8677915301
  H         5.2989687051       15.4890355141       15.6170212507
  C         7.2781824070       16.2747718688       15.2495071673
  H        -0.6660711482        6.2342313982       19.2053208299
  C        -1.6391507045        7.4545261207       20.3667558261
  H         6.7258922517       16.8044586907       -5.0640829267
  H         6.3928443971       18.3162226189       -4.3091168766
  C         4.7009524738       17.3192242754       -5.2310131132
  H        -6.8812739906       12.7437105602        7.7665655898
  H        -6.3177055606       14.1939399657        8.3976028720
  C        -7.9306021527       13.5421567862        9.4698160260
  H         6.8877815124       17.2185288523       15.6433147533
  H         8.2923865643       16.2955012941       15.7033985548
  C         7.5575361636       16.3246573818       13.7678395512
  S        -2.2917540211        8.9336035487       20.8368924412
  C        -1.7005922078        6.3305723561       21.3421251502
  H         3.9430499344       16.7911600387       -4.7572020109
  H         4.7851080412       16.8561290217       -6.2411031755
  H         4.3204085807       18.3580415061       -5.3840294147
  H        -8.7220182384       13.9941482411        8.9188458513
  H        -8.3287668123       12.7345333195       10.0195902920
  H        -7.5921785306       14.1599029626       10.3206615896
  H         8.0610251828       15.4146822761       13.4913657951
  H         6.6673601084       16.4680819891       13.1854833440
  H         8.2473621694       17.0859336119       13.4661679671
  C        -2.6057213690        8.1057145972       22.4241189245
  N        -2.2265967030        6.8202002270       22.4636228594
  O        -1.3618479306        5.2007150852       21.0821293861
  S        -3.2264901229        8.9361132722       23.8531871367
  C        -2.2569839226        5.9855142379       23.6225885850
  H        -2.2950091894        4.9232934756       23.5442253908
  H        -3.0921479668        6.2754967021       24.2575739498
  C        -1.0337380361        6.3914020556       24.4628583350
  H        -0.3263900791        5.5870412779       24.3106505276
  H        -1.2550929669        6.3584722984       25.5351295893
  H        -0.7161820556        7.3855745642       24.1087873635
