352
i =
  H        -4.1296713515       13.2090669804       16.1005289034
  C        -3.0784496049       13.6207654932       16.1583232800
  H        -2.4590776145       12.8505199625       16.5537250205
  C        -3.0534293765       14.8622461883       17.0418459829
  C        -2.6754789484       13.8204034432       14.7494837483
  C        -3.3490883010       14.3081982032       18.4350685214
  H        -2.1068149242       15.4090945322       17.0086688059
  H        -3.7926163898       15.6074571856       16.8085929667
  H        -3.1502770355       13.0965963593       14.0010527456
  H        -3.0965221725       14.7605790789       14.3766006560
  H        -1.5476201177       13.7023191326       14.6472964191
  C        -2.0934232426       14.2337673452       19.3897208068
  H        -3.7310692244       13.2816599357       18.2660900859
  H        -4.1174757365       15.0274346579       18.8754441771
  C        -2.5308726847       13.9061223007       20.8014238802
  H        -1.3660868485       13.5965868354       18.9521910360
  H        -1.7857034411       15.2976202399       19.5177087919
  C        -1.5125718003       13.1040115348       21.7034715441
  H        -3.4345164417       13.2605763107       20.8505569038
  H        -2.6252226099       14.8372203303       21.2896645971
  C        -0.4110063602       14.0874083597       22.2942646662
  H        -1.9687233524       12.5213170825       22.5162627886
  H        -1.1207891903       12.3178412142       21.0347508450
  C         0.7744753341       13.4056277657       23.0139902860
  H        -0.0417169567       14.6767444035       21.5441243515
  H        -0.9628223696       14.7674886083       23.0741812455
  C         1.2227328481       12.0496703677       22.3105484382
  C         0.2910275631       12.5751258720       24.2346785832
  C         2.0573586198       14.3302885361       23.3098047104
  C         1.0076367276       10.9303863290       23.1820900542
  C         1.9746362046       11.6498022975       21.1547969948
  C         0.4260711473       11.2704360411       24.3623974093
  C        -0.1567845879       13.2058269352       25.3822749333
  H         2.0948225642       15.0360963047       22.4682819881
  H         1.5849812258       14.8111778649       24.2444600042
  C         3.3665915877       13.6454929605       23.6770144597
  S         1.5225281460        9.4937108177       22.4953993706
  C         2.0905787242       10.2493519488       21.0696922028
  H         2.3323739518       12.3766425927       20.4425456188
  C         0.0189489279       10.6303693179       25.4482017784
  H        -0.1794788661       14.2495792579       25.5247213948
  C        -0.4323648031       12.4834001068       26.5549710749
  H         3.6099663908       12.9332814573       22.9243699013
  H         3.2453850890       13.2009808184       24.6245360412
  C         4.5852129139       14.5531428700       23.9476711963
  C         2.6451306307        9.5658449131       19.8163519797
  C        -0.3719617710       11.1590566862       26.6356205888
  H        -0.0301835938        9.5414702612       25.3102069094
  C        -0.8381805008       12.7395410583       27.8290071168
  H         5.3611862671       14.0944897601       24.5362904248
  H         4.2635273534       15.4872664289       24.4498682089
  C         5.2646987120       14.9297176912       22.6280655064
  C         2.5649032256        8.1192235515       19.6592253528
  C         3.1475133978       10.3504078049       18.7030169754
  C        -0.6383314116       10.3573498917       27.8377157917
  C        -0.9620355091       11.6194287730       28.6566375913
  S        -1.0853022468       14.1772178305       28.6600564487
  H         5.8820733207       15.8390913380       22.8631529891
  H         4.5513572959       15.1736369229       21.8608794374
  C         6.2599337132       13.8846219985       22.0917986821
  N         2.0809328540        7.2410614770       20.6358221928
  C         2.7865545073        7.5873378744       18.4200495197
  C         3.4258292544        9.7249844223       17.4462777092
  H         3.2682814020       11.3969537163       18.7898723498
  C         0.6356468419        9.6810889430       28.3094210629
  C        -1.8109920769        9.4104566056       27.7273934759
  C        -1.3133895639       11.9389962328       29.9628537063
  C        -1.3221699431       13.3153706563       30.0749044803
  H         7.1875855721       14.3989472923       21.9794018852
  H         6.3285315253       13.0910077282       22.8081828908
  C         5.9658008945       13.2293059865       20.7195669484
  S         1.9856810426        5.7722841770       19.9256296089
  N         2.5731951062        6.1956176345       18.4718310765
  C         3.2411239085        8.2532534134       17.2752419744
  H         3.7865174566       10.3087312199       16.6056407157
  H         1.2148867211        9.4498711455       27.4553585228
  H         0.4469104782        8.7532988980       28.6979083562
  C         1.5984733212       10.5420267817       29.1982424777
  H        -1.5288839230        8.6314880844       27.1081265128
  H        -1.9254339902        8.9162666667       28.7202140808
  C        -3.0932467596       10.0751131064       27.2193115366
  H        -1.4232533206       11.1717421792       30.7703825561
  C        -1.6095553114       14.1238572879       31.3869690261
  H         4.9350987445       12.9854403933       20.6199306470
  H         6.4720154378       12.2158762608       20.7521747960
  C         6.5048465804       13.9826200217       19.5551805109
  C         3.4203936386        7.4724448697       16.0601722134
  H         1.8228556596       11.5148188877       28.7037106025
  H         1.3357550091       10.5693940645       30.2377570421
  C         2.9335503650        9.7737060481       29.3311162699
  H        -2.9019902520       10.2941556725       26.1951605804
  H        -3.3410795376       10.9406907011       27.7656739934
  C        -4.3108774870        9.1329668189       27.4099328683
  C        -1.6477721975       15.5621838228       31.4301864244
  C        -1.9510539874       13.3172590961       32.6082275657
  H         5.8293602200       13.8078485245       18.6923923814
  H         6.4797257818       15.0277163758       19.8381314147
  C         7.9577961995       13.4750326075       19.2752447605
  H         3.1797048213        6.4060684810       16.1082607075
  C         3.7917958262        7.8303149800       14.7859496262
  H         3.1874960397        9.4346611322       28.3597185511
  H         2.8521773244        8.8350282019       29.8837359164
  C         4.0602435854       10.7335784730       29.7221061715
  H        -4.2266424893        8.3072918873       26.7308773710
  H        -4.2388069893        8.7785171061       28.4347113834
  C        -5.5898121767        9.8835799728       27.2293252902
  N        -1.5485352064       16.4704842352       30.4315436619
  C        -1.9072152864       16.2210170104       32.6374036952
  C        -2.2496096114       13.9963835536       33.7666971874
  H        -1.8831080438       12.2629319945       32.6188071459
  H         8.5030333042       14.3954155670       19.4139177768
  H         8.3292058532       12.8134394159       20.0452217271
  H         8.1329806699       13.0032204736       18.3187479318
  S         4.2575945562        9.3351716438       14.2204747427
  C         3.8085005636        6.7514895075       13.7521138882
  H         4.2663352649       11.4700982736       28.9211602585
  H         3.7404127295       11.3413521308       30.5472221033
  C         5.3625622655       10.1035785828       30.0913660918
  H        -5.6897294947       10.9145287503       27.5643554837
  H        -6.4373553943        9.3169727006       27.7104999723
  C        -5.8457244202        9.9580243363       25.7389716714
  S        -1.5270229192       17.9624660640       31.0194769768
  N        -1.9154042521       17.6077227546       32.5626613776
  C        -2.2314139022       15.4817674282       33.8487443694
  H        -2.4609690413       13.4439441712       34.6910781852
  C         4.1801286122        8.6123066519       12.5443581798
  N         4.1071099198        7.2797999806       12.5245322099
  O         3.5845214299        5.5299967166       13.9859332962
  H         5.9811412913       10.8156986352       30.5471324828
  H         5.8642996093        9.7999448682       29.1356581910
  C         5.2573609967        8.9533196363       31.0576921333
  H        -4.9697828571       10.3381052371       25.2551582049
  H        -6.0636367766        8.9531130335       25.4056074344
  C        -7.0211747112       10.7534896108       25.3375787359
  C        -2.6670946188       16.2658306216       34.9982407512
  S         4.5535163827        9.4069130778       11.0226259850
  C         4.0459576089        6.4210268639       11.3301534946
  H         6.1618131420        8.9215981679       31.6421267811
  H         4.3997285106        9.1204187080       31.7445319995
  C         5.1867803431        7.5454108524       30.4559438658
  H        -6.9013124919       10.8705038886       24.2923349508
  H        -7.0312156393       11.6860202188       25.8040126560
  C        -8.3106461450        9.9431644287       25.6279376197
  H        -2.4280006197       17.3267620435       34.9411419524
  C        -3.2761508692       15.9548163859       36.2014803468
  H         4.6817154875        6.8444406792       10.5081488719
  H         4.5941981952        5.4961305359       11.6470275236
  C         2.5905071196        6.2126647861       10.9722535356
  H         5.3370896257        7.4055838608       29.4539253323
  H         4.1221226420        7.2252171013       30.5571463488
  C         6.1854052621        6.4983943455       31.0834719978
  H        -8.5893307208        9.4166610783       24.6962758256
  H        -8.0550262648        9.1586063919       26.3724598753
  C        -9.5315686028       10.7350133015       26.1579628592
  S        -3.8784643700       14.4304404544       36.7256055992
  C        -3.4287208154       17.0729923259       37.1815917296
  H         2.1010637659        7.1859204751       10.9378991197
  H         2.5851974339        5.8047905729        9.8664327240
  H         2.0110912971        5.5111332622       11.6062130059
  H         6.2486664600        6.7586393714       32.1400940279
  H         7.1391116167        6.2926352386       30.6263601231
  H         5.7308786960        5.4821636277       31.0701016109
  H        -9.3595753960       11.1259064402       27.1754094404
  H       -10.3915789112       10.0496390823       26.1155475064
  H        -9.6681297884       11.5349342290       25.5169081595
  C        -4.2816798074       15.1863049411       38.2121184458
  N        -4.0516512889       16.5139997021       38.2872185560
  O        -3.2306321796       18.2856642054       36.9828281532
  S        -4.8401736944       14.3917327903       39.6737746551
  C        -4.1785289434       17.3117583246       39.5058012419
  H        -4.3260848687       18.3619666873       39.1815104170
  H        -4.9657331127       16.9872798135       40.1526653614
  C        -2.8393082629       17.1471793096       40.3038580868
  H        -2.9173623109       17.7497089526       41.1998128588
  H        -2.7308027534       16.2104496604       40.6986183334
  H        -2.0841332472       17.4611200017       39.6037548766
  H         7.1693024157       11.2550813441        3.6699113835
  C         7.8800303850       10.4251949517        3.5819408052
  H         7.1469456864        9.6176313712        3.6197790157
  C         8.8719284167       10.5128788388        4.7482525390
  C         8.5495079195       10.5155925891        2.1401547265
  C         8.1525554667       10.8699621962        6.0457285388
  H         9.4060917584        9.5362180824        4.8812381410
  H         9.6460059316       11.2320264051        4.5395314222
  H         9.2911523194       11.3205817454        1.9318114089
  H         7.7922084934       10.3066264222        1.3756407685
  H         9.2054501463        9.6173866734        2.1738069097
  C         7.5928170869        9.6124001488        6.7201977839
  H         8.8370358334       11.4695214341        6.6331517968
  H         7.3302110930       11.6151344356        5.9446826816
  C         6.7782902148       10.0171718426        7.9144254230
  H         8.4548938475        8.9840591870        7.0568325670
  H         7.0200682511        8.9156199996        6.0853366512
  C         5.4836559325       10.8499488307        7.6661421727
  H         7.4693072352       10.5788246202        8.5241837273
  H         6.5089861637        9.0740319758        8.4165986442
  C         4.2470117235       10.1767684048        6.9076462441
  H         5.1351555190       11.1694789015        8.6916752168
  H         5.6885728008       11.8239359105        7.2924075603
  C         2.9097088547       10.9507462528        6.6875741669
  H         4.0324787253        9.2537372806        7.4674469978
  H         4.5266635220        9.8929621123        5.8821174504
  C         3.1929323614       12.2811550008        5.9600451137
  C         2.5514621959       11.6861159591        7.9605705567
  C         1.7850007633       10.1609712415        6.0228343374
  C         3.0259135157       13.4218079257        6.8059362027
  C         3.7057581255       12.6904609567        4.7222639195
  C         2.5508833069       13.0515136602        8.0639689343
  C         2.1128770198       11.0594072184        9.1463385743
  H         2.1661757608        9.6862747066        5.1009012466
  H         1.4244455920        9.3813410414        6.7054445613
  C         0.5856940086       11.0430776981        5.6600304675
  S         3.3704887701       14.9364861618        6.0281806628
  C         3.8666427577       14.0573877882        4.6646411821
  H         4.0820994169       12.0085739917        4.0231403199
  C         2.1508774056       13.6958024974        9.2105449337
  H         2.0072311650        9.9869969834        9.1820052282
  C         1.8594436589       11.6910868396       10.3459537382
  H         0.8846044049       11.8161314685        4.9292215799
  H         0.2197280521       11.5754411117        6.5139250234
  C        -0.5985858843       10.3965727699        5.0150903447
  C         4.3172731472       14.7717499418        3.4346241811
  C         1.7932361557       13.0305605893       10.3788645883
  H         2.0046776949       14.7068829134        9.0974133957
  C         1.3420832208       11.2895595615       11.5730276666
  H        -1.4764165418       11.0527131854        5.1434456159
  H        -0.9643873088        9.4490246463        5.4111892627
  C        -0.3186357399       10.2832745292        3.4846167985
  C         4.1930605424       16.1450922370        3.1502595512
  C         4.7295564432       13.9567505126        2.3010743015
  C         1.3239763466       13.7057251287       11.6167152930
  C         1.0981054083       12.4143619564       12.3811204222
  S         1.0533685626        9.7490585552       12.3190321318
  H         0.3316742074        9.4160516406        3.2743193353
  H         0.0850826913       11.1925797020        3.0214586298
  C        -1.6319663512        9.9023460909        2.7111806086
  N         3.8506584972       17.0970346438        4.1135383368
  C         4.4211581579       16.7590789521        1.9239453161
  C         4.9369301905       14.5446569193        1.0989632059
  H         5.0042363822       12.9213428019        2.4319134259
  C         0.0604078676       14.5719658568       11.5501034340
  C         2.5865220819       14.5112737589       12.2317468500
  C         0.7738468112       11.9828206321       13.6713043504
  C         0.7258970944       10.5888164700       13.8066866452
  H        -2.1339389840        9.2046394704        3.3843322993
  H        -2.2557240263       10.7673319149        2.5337323182
  C        -1.3502986629        9.1392387584        1.3874496609
  S         4.0004466411       18.6040422572        3.4665005770
  N         4.2474795178       18.1317063710        1.9947801677
  C         4.7989177523       15.9823707987        0.7781347394
  H         5.2793793906       13.8307110268        0.3516582345
  H         0.1740418622       15.4775436851       10.9246865658
  H        -0.0961820463       15.0467672559       12.5502002057
  C        -1.2019645148       13.8298663863       11.0713206558
  H         2.8544439604       15.2682093064       11.5520622412
  H         2.2231424231       14.9467650616       13.1259481780
  C         3.7769141814       13.6831377200       12.6229867067
  H         0.5277335493       12.7205261900       14.3973077097
  C         0.2326342183        9.9079023979       15.0712434669
  H        -2.3546694431        8.9666034393        0.9902714491
  H        -0.7693473205        8.2150949237        1.5661246620
  C        -0.4816566611        9.9623781025        0.4512165418
  C         4.9949016335       16.5662497370       -0.4821466916
  H        -1.0560759663       13.2560422056       10.1761140713
  H        -1.4130786283       13.1788869045       11.9790180861
  C        -2.4652730615       14.7285613224       10.8953181936
  H         4.2473615521       13.3487850491       11.6773641312
  H         3.5501897266       12.6906295353       13.0687302946
  C         4.7837098021       14.5116698716       13.4598389050
  C         0.1763454974        8.4932137445       15.1742729222
  C         0.0113776500       10.6472024842       16.3207691575
  H        -0.7423888170       11.0419661697        0.5759791868
  H         0.5480063378        9.8781673609        0.7241763500
  C        -0.7145836497        9.6184900153       -0.9989273096
  H         4.6984180830       17.6279608744       -0.4167099895
  C         5.3783661290       16.0403888033       -1.6910902726
  H        -2.3177928673       15.6173317521       10.2672487939
  H        -2.8670861293       15.2174205850       11.7956239851
  C        -3.6602028984       13.9111887160       10.4112266762
  H         5.1526918807       15.4425356888       12.9607701311
  H         4.1501615308       14.8774816857       14.2937380531
  C         5.9797017493       13.7928358233       14.0837434811
  N         0.5747827906        7.6124751650       14.2093337752
  C        -0.1571135118        7.8266383841       16.3508134255
  C        -0.1515940032       10.0279788396       17.5470222459
  H        -0.2063984597       11.7342847532       16.3282222899
  H        -0.0289300731       10.1904718458       -1.6386284014
  H        -1.7651194669        9.8699865803       -1.3961212240
  H        -0.5739780131        8.5385480792       -1.2094139310
  S         5.6452668618       14.3511983478       -2.1133615703
  C         5.3646287284       16.9585351056       -2.8274240733
  H        -3.2724272747       12.9486091557       10.0773411042
  H        -4.3942538063       13.6960646983       11.2460498037
  C        -4.4184632156       14.6876918134        9.3252043950
  H         6.3073708171       12.9831838426       13.3655947357
  H         5.6928783457       13.2751885990       14.9282273304
  C         7.2316419305       14.6688254682       14.4688010362
  S         0.3984938581        6.0629660810       14.7585785051
  N        -0.2647811330        6.4378946076       16.2066241547
  C        -0.3428372543        8.5448744215       17.5845892898
  H        -0.2572414863       10.6599495457       18.4145932886
  C         5.8349254136       14.9841803680       -3.7965006099
  N         5.6674265225       16.3342795891       -3.9624033641
  O         4.9829421597       18.1136141699       -2.6665947115
  H        -4.9495574979       15.5072949587        9.8945170299
  H        -3.7444416004       15.1934708551        8.6360741600
  C        -5.4664970831       13.7546939826        8.6113049913
  H         7.8250923885       13.9169007142       15.0205844190
  H         7.8425334923       14.9325808256       13.6405536796
  C         6.8840013259       15.7337302943       15.4370713374
  C        -0.6631532184        7.6965285521       18.7294153797
  S         6.2265258178       13.9256698102       -5.1434966795
  C         5.6051902142       17.0214950295       -5.2548958002
  H        -5.1852248577       13.6792519128        7.5944706581
  H        -5.3030612817       12.7960484000        8.9967275716
  C        -6.9012526528       14.3155008431        8.7139161510
  H         6.7924155318       15.3133679924       16.5051104609
  H         5.8778413000       16.1630472490       15.2007990924
  C         7.8632746833       16.9174084478       15.5094586011
  H        -0.3594647506        6.6770523180       18.6572557058
  C        -1.2222078708        8.0167078738       19.9236465610
  H         6.1376993933       16.4192856255       -6.0382133179
  H         6.2209381017       17.8911909451       -5.0927830727
  C         4.1738483128       17.2035898942       -5.7377490565
  H        -7.5240494707       13.7840040726        8.0405632385
  H        -6.9162172500       15.3403622526        8.3415976293
  C        -7.6109544145       14.1113418833       10.0078205605
  H         7.7955140444       17.3995717980       16.5803872054
  H         8.9146114100       16.6348500494       15.4269746993
  C         7.4768176850       18.0250206278       14.5304290275
  S        -1.7843233187        9.5347969867       20.3920202129
  C        -1.2691016100        6.9291409725       20.9074480829
  H         4.0554994868       17.1603131732       -6.8363200305
  H         3.7841956530       17.9978325282       -5.0975761861
  H         3.7704243512       16.3243037219       -5.4169425537
  H        -7.4342397244       13.1634688948       10.5044458769
  H        -7.2173749106       14.9820967352       10.5961777955
  H        -8.6591269158       14.4242964221       10.0775353736
  H         7.4224255398       17.6678149367       13.4923497684
  H         6.4995618833       18.3720674858       14.8475897988
  H         8.3405567039       18.7248594964       14.6226037294
  C        -2.0649864466        8.8044442785       21.9871153900
  N        -1.8344680589        7.4376939596       22.0118430325
  O        -1.1453079400        5.7237166625       20.6160193634
  S        -2.9832746845        9.4928491941       23.3158706639
  C        -1.9641505262        6.6059242598       23.1805296741
  H        -2.0807908315        5.5338516075       22.9055359292
  H        -2.8928245229        6.6663385668       23.6178199741
  C        -0.8229882015        6.5200377751       24.2007799489
  H        -0.9699619789        5.7556219821       24.9662028658
  H        -0.7339960446        7.5299298214       24.6858836886
  H         0.0631278108        6.1237706391       23.6420297694
