352
i =
  H        -2.8669716713       14.5336094024       16.5223901651
  C        -3.5357783035       13.6704118239       16.6284193298
  H        -4.5363994077       14.1584314745       16.7660093060
  C        -3.2993772925       12.8057786268       17.8899246467
  C        -3.4414330176       12.8580727108       15.3937824024
  C        -2.8949005269       13.6752472093       19.0878064483
  H        -4.2265958351       12.2456975350       18.1096922412
  H        -2.4580340500       12.1592259116       17.6683633552
  H        -3.7527936028       13.5208618292       14.5627078155
  H        -2.3911115972       12.7222580544       15.1857894583
  H        -3.8952702499       11.8729059400       15.2947714232
  C        -2.3598800976       12.7371793285       20.1299758203
  H        -3.8019321336       14.0603924688       19.6371052106
  H        -2.1378550904       14.4878531024       18.9033647659
  C        -2.6101542660       13.2088137914       21.5585224243
  H        -2.9388769186       11.8254796358       20.0072859471
  H        -1.4059058107       12.4538818610       19.9171358505
  C        -1.6220980922       12.5187614414       22.4982660090
  H        -3.5799991999       12.8391569230       21.7659733284
  H        -2.5581411816       14.3388758013       21.6800549437
  C        -0.4472208704       13.4385219343       22.8470375433
  H        -1.9969924728       12.2939577291       23.4285617248
  H        -1.2986800118       11.5746088827       22.1465274567
  C         0.8119863367       12.7200573342       23.4701129810
  H        -0.1846736721       14.0603207648       21.9985515095
  H        -0.7566219642       14.1721862307       23.5645801800
  C         1.2113786455       11.4784718219       22.6565425453
  C         0.4395226375       12.0115450234       24.6979104098
  C         1.9938404897       13.7420569187       23.5360282924
  C         1.0489687877       10.3486171832       23.3929884026
  C         1.7659537684       11.1237873899       21.4020471662
  C         0.5652192688       10.6740006019       24.6892923487
  C        -0.0780959190       12.5631121828       25.8617567825
  H         2.1083839143       14.1044709205       22.5050587943
  H         1.8089056823       14.6860745294       24.0828324879
  C         3.3153033298       13.1197450273       23.9292427770
  S         1.5997598354        8.8962679467       22.6262579971
  C         1.9790341719        9.7608762415       21.1662268115
  H         1.9317577186       11.8618507230       20.6695539842
  C         0.0545021709       10.0472637764       25.7712259170
  H         0.0599858405       13.5923511509       25.8739231270
  C        -0.4516875488       11.9084196113       26.9434280379
  H         3.5967566098       12.2889328465       23.2006974588
  H         3.1806388474       12.6251983625       24.9190394515
  C         4.4341080815       14.1408638367       24.0921524621
  C         2.3867633652        9.0987943962       19.9037898986
  C        -0.5185548997       10.5621587484       26.9930163695
  H         0.1850568506        8.9406993924       25.8578422697
  C        -0.8961842925       12.2294420825       28.2128470902
  H         5.1066306731       13.8213230888       24.8431397831
  H         4.0424469697       14.9624383981       24.6314789272
  C         5.0677019383       14.6997569283       22.8301056320
  C         2.2641590143        7.6701713595       19.6493269928
  C         2.7603796771        9.9398705975       18.7511979569
  C        -1.0215883056        9.7438860549       28.1786581750
  C        -1.1948665131       11.0914510764       28.9443622930
  S        -1.0777629326       13.6938387882       29.0413487168
  H         5.7611377783       15.4946260665       23.0399178775
  H         4.4135464760       15.2105263643       22.0886489031
  C         5.9710992452       13.7254946863       21.9903650730
  N         1.7310198511        6.7314352184       20.5523889586
  C         2.5146220643        7.1161447787       18.3801206029
  C         2.9714722881        9.3309822314       17.4815884533
  H         2.9589368698       10.9992442443       18.8714795547
  C         0.1022181347        8.7958414055       28.7949522973
  C        -2.4072071234        8.9949078283       27.9831918450
  C        -1.5071947843       11.4785119185       30.2703769044
  C        -1.5688601044       12.8303172560       30.4825049006
  H         6.8768551521       14.3554062317       21.6488562016
  H         6.4462125034       13.0043158873       22.6475849840
  C         5.3649098896       13.1246305215       20.6415604913
  S         1.9018942485        5.2242517491       19.8789226864
  N         2.5088887362        5.7403173531       18.4254737485
  C         2.8281704067        7.8526811857       17.2313017762
  H         3.2228963401        9.9335954189       16.6683608975
  H         0.3368008636        7.8103009410       28.2501911739
  H        -0.1693727641        8.2665283674       29.7947745910
  C         1.3566399998        9.6164081938       29.1551189446
  H        -2.3510067971        8.3336615962       27.1597721580
  H        -2.6880201881        8.5326402721       28.9540252333
  C        -3.5574314645        9.9397823934       27.5511687253
  H        -1.9300737163       10.7346581885       30.9285923681
  C        -1.9555020042       13.5383938411       31.7601123983
  H         4.4343634650       13.4786462173       20.4035421758
  H         5.3309681306       12.0024301653       20.8192646020
  C         6.2596388476       13.3896246643       19.4089845516
  C         3.0099923281        7.1972992479       15.9568540614
  H         1.6793643745       10.1230114648       28.2415981098
  H         1.0091437810       10.4000127775       29.8171288444
  C         2.5752546044        8.8744502096       29.8012684138
  H        -3.3671569219       10.5460679733       26.7174300836
  H        -3.8104036850       10.6484964136       28.3808828613
  C        -4.9165142966        9.2212775121       27.2567941295
  C        -2.0327505499       14.9317618391       31.9815635789
  C        -2.3120141530       12.7403061504       32.9787156260
  H         5.9648619381       12.6925800100       18.5951981991
  H         6.1406224423       14.3831430800       18.9459963440
  C         7.7502980988       13.0697767041       19.6574155624
  H         2.8482795653        6.1418006833       15.9730278616
  C         3.3954420697        7.5807300329       14.6873741492
  H         3.0183826847        8.2307651096       29.0091511189
  H         2.3545605428        8.1216048265       30.5862771790
  C         3.6766200400        9.7552662393       30.4081352459
  H        -4.8520591099        8.8340442264       26.2665133482
  H        -5.0086382932        8.4867493553       28.0745345614
  C        -6.1485388645       10.1370673695       27.3959252321
  N        -1.7167291708       15.8313000422       30.9877121300
  C        -2.4561780479       15.6137673363       33.0718735195
  C        -2.7228964303       13.3693430600       34.1153536513
  H        -2.1908974693       11.7209097466       33.1522171571
  H         7.9062429305       12.4536392730       20.5665951326
  H         8.2150777235       12.5152209942       18.8721683688
  H         8.2756753184       14.0174430456       19.8980841257
  S         3.7279604603        9.1530340605       14.1846388277
  C         3.6960538412        6.5687700831       13.6190813703
  H         3.9110311679       10.6066771023       29.8640904501
  H         3.4665696961        9.9876701716       31.4671697141
  C         5.0284668986        8.9228076144       30.5035161057
  H        -6.0546605084       11.0302140020       26.8077575466
  H        -6.2745922124       10.4244119954       28.4613461869
  C        -7.3184396763        9.4048441982       26.8498245208
  S        -1.9217510417       17.3212842106       31.4977797902
  N        -2.4176740227       16.9755003096       33.0022004273
  C        -2.8037301909       14.8750076849       34.2331903519
  H        -3.0113374972       12.7739143913       34.9908009691
  C         4.1134752997        8.5263030737       12.5914027076
  N         4.1083447875        7.1932345674       12.4541808526
  O         3.6022512705        5.3725940340       13.8422770182
  H         5.6364025162        9.6423789041       30.8899390373
  H         5.4106072691        8.6049410036       29.4773519951
  C         5.0823401979        7.7878327818       31.4968276475
  H        -7.1114513321        8.3150212934       26.6534482567
  H        -8.0782716513        9.4462831106       27.7000369989
  C        -7.8001184788       10.1918516437       25.6325901914
  C        -3.2124168574       15.6234522427       35.3815898046
  S         4.7867980940        9.4547627905       11.1966658880
  C         4.2250838326        6.4947070095       11.2149432452
  H         6.0356664448        7.7437077591       32.0642449672
  H         4.3113397430        8.0499138943       32.2384947761
  C         4.9320375167        6.3928059103       30.9013119191
  H        -7.0398946842        9.9925112816       24.8590709266
  H        -7.8643569217       11.2166537878       25.7056599402
  C        -9.0776748170        9.6823033190       25.0425395712
  H        -2.9947571830       16.6714340150       35.3792143021
  C        -3.7367817621       15.1966267764       36.5788446241
  H         5.1054532975        6.8568555645       10.6014509096
  H         4.3853393004        5.4454597860       11.3662541632
  C         2.9702657084        6.5057371888       10.3536816436
  H         4.0557604676        6.3077005432       30.3388984328
  H         4.8115322212        5.6151887950       31.6528895561
  C         6.0652742949        5.9182828190       30.1417068374
  H        -9.3185634947       10.0962432310       24.0337742305
  H        -9.0213403621        8.6071018919       24.9316023757
  C       -10.2215932086       10.1266539769       25.9795093071
  S        -4.3831954138       13.6963442259       36.9582578555
  C        -3.8842264240       16.1969109293       37.6322346495
  H         2.9232997957        5.6984379042        9.6223688324
  H         2.0554419547        6.3722506804       10.9713189760
  H         2.9235011095        7.3703178445        9.7038441755
  H         5.7128614409        5.6911272165       29.1000464559
  H         6.5690819762        5.0049690774       30.4828360735
  H         6.7487013311        6.7396671830       30.1352741525
  H       -11.2076843779       10.0070711494       25.5641399171
  H       -10.1567323779       11.1783992069       26.3392584995
  H       -10.2866560303        9.5977591842       26.8559186318
  C        -4.7189419752       14.3872060380       38.6079442684
  N        -4.3505258133       15.7047762686       38.7759342276
  O        -3.3896921866       17.2969007063       37.5798960276
  S        -5.4655979486       13.5200494157       39.9450197032
  C        -4.3862649162       16.5518757682       39.9837238480
  H        -4.8989706431       17.4298597661       39.5939209765
  H        -5.0292316216       16.0587368897       40.7217671134
  C        -2.9475341518       16.9152752659       40.4402349732
  H        -3.1002869957       16.9419605124       41.5330996294
  H        -2.1720773018       16.2007029556       40.2568096541
  H        -2.5127804652       17.8849688727       40.1286058781
  H         7.0417461442       10.9017045436        3.2241464818
  C         7.8214588494       10.2081479112        3.4100241636
  H         7.3555783774        9.1999136358        3.5481363901
  C         8.4832733248       10.4043782304        4.8157366960
  C         8.8088602034       10.3642861768        2.2627777888
  C         7.5087761802       10.7206583501        5.9549134835
  H         8.9784057825        9.4434805901        5.0265532853
  H         9.2430508105       11.1796502706        4.7670253655
  H         8.4010313048       10.0189652418        1.3494274426
  H         9.7350478011        9.8838251894        2.5640682884
  H         9.0645723828       11.3776086698        2.1282575936
  C         7.0773931669        9.4215710451        6.5882682784
  H         8.0585138056       11.2417885424        6.7255625475
  H         6.6583180933       11.2683109296        5.5774169150
  C         6.3479404773        9.6125713926        7.9027801953
  H         7.9860197525        8.9135662099        6.8268732647
  H         6.5523855992        8.7717550942        5.8852852000
  C         5.0450169651       10.3914935396        7.7219098438
  H         7.0294342483       10.0549633932        8.6247116318
  H         6.1542721224        8.6487097318        8.3232976857
  C         3.9180920282        9.6141829106        7.0838630430
  H         4.6975103508       10.5950730281        8.7287300533
  H         5.2203363948       11.3691523984        7.2307068279
  C         2.6140435996       10.4036080317        6.9452136395
  H         3.8330679918        8.6377421850        7.5663921497
  H         4.2764220482        9.3867709908        6.0500768736
  C         2.9412925488       11.8517428964        6.3939066249
  C         2.1926272378       11.0442038107        8.2322246823
  C         1.6765549596        9.5740234867        6.1020113238
  C         2.7326359590       12.9050922926        7.2315223197
  C         3.4448675742       12.2814740750        5.1683865837
  C         2.2680140024       12.3658015253        8.4394545802
  C         1.8548222830       10.3540166702        9.3725504461
  H         2.1556903895        8.9576637647        5.3307021752
  H         1.1816684269        8.7549410056        6.6927029602
  C         0.5610062873       10.3592566118        5.3966425057
  S         3.0929188243       14.3989662122        6.5658020367
  C         3.5795537036       13.6309965287        5.0526853159
  H         3.6172702588       11.5401942676        4.4352333922
  C         1.9676532194       12.9676992858        9.6097061564
  H         1.8258981460        9.2835274971        9.3470994416
  C         1.5458292971       10.9185870004       10.5877444984
  H         1.0801079101       11.0830373628        4.8216266356
  H         0.0322008062       10.8755541097        6.2011507984
  C        -0.2334001169        9.5025224987        4.5183790275
  C         4.0901482946       14.3667970111        3.8277789579
  C         1.5742429652       12.2795539133       10.7721674113
  H         2.1717050460       14.0387802251        9.6931044860
  C         1.1336901893       10.5052829275       11.8158737446
  H        -0.9401292255        8.8492706864        5.0583209397
  H         0.4197392318        8.8298348550        3.9085414779
  C        -1.0425261263       10.2292194267        3.4941024640
  C         4.2071193936       15.7737343772        3.5952908022
  C         4.6105246013       13.5822967638        2.7021549133
  C         1.2699569991       12.9780674637       12.0551259164
  C         0.9746276502       11.5617394541       12.6988888921
  S         0.8839414136        8.9301797500       12.5256424101
  H        -0.3633742169       10.8058949116        2.9090948379
  H        -1.5731843964       10.9799230781        4.0210886644
  C        -2.0056550478        9.4256660244        2.6261622326
  N         3.8856751520       16.7939776200        4.5650696031
  C         4.6203095942       16.3336936201        2.3508673187
  C         5.0100341034       14.0821785169        1.4536598705
  H         4.6785443467       12.5162983132        2.8863736616
  C        -0.0901782122       13.8080811267       11.9507202985
  C         2.5066749800       13.6569220951       12.6093261376
  C         0.5443641064       11.0687763360       13.9284726577
  C         0.5126988705        9.7068402646       14.0777507097
  H        -2.3782275290        8.6801706109        3.2991851015
  H        -2.8756706928       10.0612623712        2.2864664051
  C        -1.3506459414        8.7462417520        1.4657448113
  S         4.0687652421       18.2005727862        3.8355559778
  N         4.5044063461       17.6816646490        2.3279153366
  C         4.8551964861       15.5082659380        1.1799499577
  H         5.4921812353       13.4009597359        0.7126013535
  H         0.1311353376       14.7489893051       11.4841249335
  H        -0.4440496789       13.8951484363       13.0130406783
  C        -1.1857722971       13.1314636492       11.1932677446
  H         2.9435987772       14.3975856287       12.0034434012
  H         2.2462539697       14.1546808013       13.5581860153
  C         3.7064634111       12.7814125400       12.9310461377
  H         0.4079803830       11.8051786659       14.6699565605
  C         0.1071239340        9.0420323223       15.3240069275
  H        -2.1472392748        8.1100559422        1.0403867319
  H        -0.5238500873        8.0381910346        1.6170251622
  C        -0.8211565774        9.7450086246        0.4627199430
  C         5.0627649055       16.1543714258       -0.0428624732
  H        -0.8909965169       13.0584145741       10.1733946921
  H        -1.2606109698       12.0372901256       11.4795265292
  C        -2.5140037264       13.8541036270       11.0939565055
  H         4.0471384462       12.2028910280       12.1030710441
  H         3.4184552819       12.1323569060       13.6476912999
  C         4.9653029279       13.5631072676       13.3982859692
  C         0.0058991405        7.6301917107       15.4738807026
  C        -0.1827923376        9.8386225520       16.5424182065
  H        -1.6273909089       10.4060686955        0.2802658417
  H        -0.0829399381       10.3561601954        0.9839353020
  C        -0.3627294051        9.2687375614       -0.8237024415
  H         4.9308204942       17.2540236435       -0.0317697327
  C         5.4475509453       15.7270775092       -1.3021097059
  H        -2.4857078922       14.7561277821       10.5268403026
  H        -2.7993088203       14.1208014446       12.0928961535
  C        -3.5773291535       13.0041583683       10.4913044196
  H         5.7583982142       12.8506162258       13.4867995809
  H         5.3755986538       14.2730913083       12.7296255562
  C         4.9062321312       14.2960437726       14.7835630150
  N         0.2175948945        6.6956628547       14.4249816186
  C        -0.4149722438        7.0184236305       16.6290964571
  C        -0.6715759766        9.2871621421       17.7082979638
  H        -0.0933957669       10.9154637786       16.5177662251
  H        -1.0871388454        8.5076713872       -1.2345704879
  H         0.6662705908        9.0374852650       -0.8798000571
  H        -0.3456902788       10.2146997831       -1.3864263473
  S         5.8504482635       14.1028417883       -1.7864602340
  C         5.4324576076       16.7388407812       -2.3919335978
  H        -3.1247557784       12.3554617143        9.7765412225
  H        -3.8695587552       12.4240252509       11.3664556119
  C        -4.7298111407       13.7576995597        9.9272850812
  H         4.2239000880       13.8153805436       15.5197322732
  H         4.5263627415       15.2594447882       14.7357080745
  C         6.2694418099       14.3409485625       15.4540751637
  S        -0.0026108523        5.2020887489       14.9724020318
  N        -0.6168207615        5.6486253291       16.4307858800
  C        -0.7607409592        7.7972562698       17.8147606861
  H        -0.9433437227       10.0165785974       18.4335574846
  C         5.9560668334       14.8081774673       -3.3991771098
  N         5.8959710695       16.2036677506       -3.5506316602
  O         5.1608083700       17.9299832193       -2.2431339142
  H        -5.0791197086       14.4267498194       10.6491480518
  H        -4.4486986548       14.3733175255        9.0692036416
  C        -5.8768391908       12.7823854290        9.4298065067
  H         6.1750137440       13.9266507370       16.4480867857
  H         7.1145680654       13.7457408088       14.9781426373
  C         6.8104165112       15.7109221847       15.6940850786
  C        -1.2186643160        7.1534085724       18.9343918203
  S         6.4322095443       13.8129518876       -4.7728512784
  C         5.9357702168       16.9201631249       -4.8293754482
  H        -5.6041999882       12.3105602249        8.4363319602
  H        -6.0870445170       12.0626318495       10.2342020997
  C        -7.1391869089       13.4646394842        9.2244104826
  H         7.1977105281       15.7529539389       16.7323714043
  H         5.9719559651       16.4260774342       15.7852165998
  C         7.9204809073       16.1802955771       14.7949820535
  H        -0.9879407897        6.1347643032       18.9108983967
  C        -1.7198823719        7.6526019467       20.1281649881
  H         6.7977924366       16.6144767873       -5.4769976185
  H         6.0348813610       17.9661492512       -4.6263723359
  C         4.5600920882       16.7539959315       -5.5910695693
  H        -7.4712412531       13.2190819509        8.2483752109
  H        -6.9576067195       14.4876084237        9.3241905360
  C        -8.3161304842       13.0690957667       10.1483388335
  H         8.4867370875       16.9882286948       15.2777401764
  H         8.5771188374       15.3338811281       14.5747363039
  C         7.5313899877       16.9388097947       13.5009218481
  S        -2.3965080134        9.2448662629       20.4572128031
  C        -1.8525324348        6.7914902968       21.3211024103
  H         3.8176993470       17.6349968858       -5.5674729687
  H         3.9288526849       15.9080413583       -5.3323813387
  H         4.8029422368       16.6663467128       -6.6406864760
  H        -9.2192266568       13.3414100473        9.6874798217
  H        -8.4985561696       12.0501584455       10.3883432629
  H        -8.1048202182       13.4563171415       11.1541226012
  H         8.3364035512       16.7970911029       12.7986783331
  H         6.6079064718       16.5921353521       13.0544185072
  H         7.4974031064       18.0090965483       13.6849583464
  C        -2.7398410420        8.7197360765       22.1838384314
  N        -2.4149941140        7.4094751612       22.3755111712
  O        -1.4589793024        5.6352379639       21.3219234889
  S        -3.3084597609        9.7227099800       23.4932393215
  C        -2.5194978472        6.6519401926       23.6613869327
  H        -2.8243062650        5.6419365574       23.4859719286
  H        -3.3899146160        6.9812540411       24.2534514954
  C        -1.2046692339        6.7054027102       24.4382687084
  H        -0.8446973161        5.6959191664       24.6418819757
  H        -1.3449035948        7.1020494263       25.4557200536
  H        -0.4107353236        7.3567687117       24.0410296647
