352
i =
  H        -3.0200234128       14.8718247189       16.1706922550
  C        -3.0301358191       13.8632210239       16.2465168650
  H        -4.0508479648       13.6818216768       16.6227038925
  C        -2.0708925158       13.3231254110       17.2585805662
  C        -2.7810247895       13.2981962575       14.9097915684
  C        -2.4785064429       13.6700729435       18.6765432079
  H        -2.1048791946       12.2120234985       17.2361478210
  H        -1.0534042077       13.6601122127       17.1331359686
  H        -1.7517693275       13.4625113919       14.6928813855
  H        -3.0995882806       12.2545729791       14.7442975662
  H        -3.3576237983       13.8837254578       14.2570475469
  C        -1.8220365980       12.7619892172       19.7328428462
  H        -3.5742592085       13.5551597275       18.7284600012
  H        -2.2897527192       14.7278477570       18.8992177687
  C        -2.3599558714       12.9569281026       21.0899698158
  H        -1.8196131569       11.6862570170       19.5303055186
  H        -0.7916079799       13.1167577992       19.7690393780
  C        -1.3993167887       12.5514431478       22.2191535040
  H        -3.3885805725       12.4606791405       21.1770802632
  H        -2.6579314068       14.0169615901       21.2925547740
  C        -0.2047690543       13.4462958117       22.3845850490
  H        -1.9370253117       12.6750700153       23.1847572369
  H        -0.9873776628       11.5298804379       22.0215317661
  C         1.0083592702       12.7703724810       22.8618874792
  H         0.0370852878       13.8559699720       21.3999433661
  H        -0.4420647960       14.2959636466       23.0689649937
  C         1.3402883360       11.4255768727       22.2770182726
  C         0.5763831979       12.0723573568       24.1271174499
  C         2.2165588403       13.7121202014       22.9669416385
  C         1.1971570510       10.2987987697       23.0962576496
  C         1.8670886670       11.0718522266       21.0178574769
  C         0.6565067337       10.7389467608       24.2867288828
  C         0.2082700655       12.6812066059       25.2877363803
  H         2.5652025174       13.9790517709       21.9146501294
  H         1.8384157502       14.6112860583       23.5506655007
  C         3.3851191750       13.0790769368       23.7507509948
  S         1.7137232068        8.8172121875       22.3625947499
  C         2.1049055766        9.6878312769       20.9317964726
  H         1.8875976910       11.8713508450       20.2772813962
  C         0.3417667501       10.1310804444       25.4675436397
  H         0.3414732665       13.7420606933       25.3126058543
  C        -0.1272992759       12.0952503946       26.5110116009
  H         3.7405501076       12.1621211570       23.2901487144
  H         3.0516078586       12.8162812507       24.7916153003
  C         4.4951178458       14.0727719804       23.9016525797
  C         2.5491463112        9.1142959596       19.6218491424
  C        -0.1009446175       10.7869164949       26.6101829858
  H         0.6050536671        9.1058851103       25.5107960347
  C        -0.5771199745       12.4658868977       27.7427014889
  H         5.1926198759       13.6196003338       24.6399415512
  H         4.1468635456       14.9911696266       24.3702086512
  C         5.3296287645       14.2965631876       22.5838377717
  C         2.4916164424        7.7503801098       19.3463606686
  C         3.1004940864        9.9218255452       18.4892657968
  C        -0.6123095175       10.0714783240       27.8440792002
  C        -0.7880908182       11.3849491738       28.5576438610
  S        -0.8283431310       14.0058824280       28.5936533987
  H         6.2603616418       14.7258619185       23.0349927517
  H         4.8943657782       15.0751098535       22.0159457404
  C         5.8676726882       13.0313758910       21.8966102137
  N         1.9677782139        6.8315951761       20.2388742779
  C         2.6529476692        7.2064922507       18.0757282404
  C         3.3974405289        9.3844534507       17.2735824412
  H         3.4112347224       10.9113323229       18.6978863403
  C         0.5313947474        9.3237350807       28.5595605729
  C        -1.8467959024        9.1397191750       27.6881570525
  C        -1.2687852048       11.7307625267       29.8468829703
  C        -1.2274334876       13.0889843148       30.0636647820
  H         6.9396804827       13.1982828117       21.6717148984
  H         5.9425580975       12.1519985725       22.4998338863
  C         5.1686445820       12.8056379285       20.5288792440
  S         2.0993741930        5.3741332703       19.5496832734
  N         2.3393873207        5.8484924638       18.0423334357
  C         3.1240356038        7.9694875235       16.9137481954
  H         3.8335231985       10.0755784591       16.5751153863
  H         0.7467978566        8.4785516272       27.9116414842
  H         0.0745976231        8.7716614530       29.3538500189
  C         1.7339899313       10.1328404847       28.9331369084
  H        -1.5316614047        8.2571293223       27.1245776189
  H        -2.3227801258        8.7268769251       28.6121018274
  C        -2.9888271054        9.8595297664       27.0539763640
  H        -1.3713593657       10.9725571448       30.5951726785
  C        -1.4982214619       13.7781267905       31.3284807481
  H         4.1118019463       12.9325929819       20.6999527523
  H         5.2754484138       11.7752777172       20.2651366553
  C         5.6158905069       13.7009487961       19.3350544607
  C         3.4121117528        7.3252933316       15.6892006370
  H         2.1865544843       10.5791935954       28.0863888845
  H         1.3768215890       10.8860303658       29.7138481564
  C         2.8117836490        9.2217025936       29.5275652336
  H        -2.7598980936       10.3113346940       26.0771451967
  H        -3.1796038766       10.7272042657       27.6723911924
  C        -4.2589950320        9.0079838772       27.1517246738
  C        -1.5454662075       15.1661898069       31.5432467733
  C        -1.6453135650       12.9507003799       32.5505369189
  H         4.5588316488       13.9589483824       18.9356285224
  H         5.7852500906       14.6604996579       19.7966086509
  C         6.8396359287       13.2764257531       18.5437817240
  H         3.1299311107        6.2714243713       15.7278161668
  C         3.6740103428        7.8513796504       14.4818569767
  H         3.4551069131        8.7456710124       28.7867686450
  H         2.4513862987        8.3051519523       30.0391734374
  C         3.8132858243        9.9217606907       30.3939732023
  H        -4.1132342273        8.1615204803       26.5270858214
  H        -4.4036237872        8.6647517909       28.1713591333
  C        -5.4375723611        9.9167842130       26.6769719247
  N        -1.5094428959       16.0922309330       30.5517020030
  C        -1.8187976661       15.7797354872       32.7333117572
  C        -1.8516463671       13.4917374749       33.8131899351
  H        -1.5896759547       11.8936743486       32.5037737699
  H         6.8088877803       12.2745933330       18.2155010034
  H         6.9250298467       13.9121502674       17.6676130615
  H         7.7554351652       13.2325407452       19.1251917912
  S         4.1029486460        9.4396120993       14.1806479913
  C         3.7947402833        6.9367750582       13.3344554999
  H         4.1113352882       10.8340462590       29.9093722464
  H         3.3435861285       10.1560644136       31.3920540772
  C         5.0827006584        9.0817129008       30.5381332265
  H        -5.0505923851       10.4320800866       25.7498181792
  H        -5.7348945838       10.5361895096       27.4855600575
  C        -6.6281841268        9.0800953982       26.2017160615
  S        -1.7155242435       17.6262952956       31.1527635355
  N        -1.9383621697       17.1795302303       32.6721649226
  C        -1.9308714989       15.0159165287       33.9492988566
  H        -1.9743781955       12.8929604300       34.6886780547
  C         4.3051591065        8.9825070409       12.4909420720
  N         4.2263878397        7.6456730760       12.2608180352
  O         3.5586100630        5.7538804436       13.3832083382
  H         5.8262319485        9.7043025508       31.0315540309
  H         5.4105348615        8.8418146610       29.6347447866
  C         4.8871189308        7.7297623987       31.2119123091
  H        -6.3114337833        8.1954109420       25.6044767461
  H        -7.2172801904        8.7854830123       27.0944448696
  C        -7.4100603287        9.9559973263       25.2786382018
  C        -2.1655931703       15.6974545039       35.1975635157
  S         4.7271056233        9.9743994057       11.1356715654
  C         4.0890585665        6.9979752263       10.9900986772
  H         4.8958690780        7.9244626911       32.3025813962
  H         3.9855820834        7.3077520169       30.8895917318
  C         6.0495535107        6.7956681753       30.8253309434
  H        -6.9228625771        9.8126141626       24.3398455495
  H        -7.4264714607       10.9647006267       25.5314135018
  C        -8.8434176949        9.4657840473       25.1435630147
  H        -1.9566890128       16.7416461440       35.2036200233
  C        -2.6671440637       15.3739637648       36.4207518499
  H         4.7663804336        7.4514424802       10.2463734887
  H         4.3947495150        5.9585109832       10.9986976614
  C         2.6155494767        7.1327453088       10.5660533168
  H         7.0035851537        7.2179089111       31.1198750720
  H         5.9378270139        6.5778884675       29.7869547698
  C         6.0474055479        5.4503819807       31.4880528420
  H        -9.3300701994       10.0037768869       24.3380016377
  H        -8.8289437583        8.4351034828       24.8008817640
  C        -9.6694856660        9.4187020558       26.4433218949
  S        -3.2966104488       13.8505994293       36.8417590400
  C        -2.8439689033       16.4278585512       37.5086645649
  H         2.0301565722        6.4403770164       11.1836884881
  H         2.2349173799        8.1357762215       10.8216793690
  H         2.3976307035        6.9726721654        9.4777128653
  H         5.1025865806        4.9315940589       31.2939170950
  H         6.2935731882        5.5126363370       32.5371211375
  H         6.8629564107        4.9261947302       30.9998798004
  H       -10.5700860226        8.8670551760       26.1116306069
  H        -9.9745215925       10.3643742168       26.9449601029
  H        -9.1380786122        8.8110986513       27.1345750829
  C        -3.7199406846       14.5704994328       38.3954391458
  N        -3.4856529349       15.8816854280       38.5514979717
  O        -2.3772417809       17.5676436795       37.3610274177
  S        -4.4568529178       13.7841551242       39.7924037714
  C        -3.6104219534       16.6173139312       39.7943833676
  H        -3.8087418383       17.6226377177       39.4480873681
  H        -4.5188642202       16.3514622804       40.3241176608
  C        -2.3704930950       16.5775881705       40.6787643070
  H        -2.2307423923       15.6570969228       41.2862192703
  H        -1.5230321381       16.5813777005       40.0666936672
  H        -2.2783226206       17.4118497490       41.3613582090
  H         7.4306686722       10.6939012600        3.3975580000
  C         8.1715749209       10.0074505908        3.7741794071
  H         7.6552087123        9.0848339720        3.8986377340
  C         8.9261420579       10.5820002435        5.0597523066
  C         8.9764983550        9.7439004902        2.5605423363
  C         8.0772415214       10.9540837925        6.2348429433
  H         9.5508187051        9.8195877227        5.4732223138
  H         9.5912987164       11.4088942512        4.7263535330
  H         8.3290359182       10.0301040160        1.7495325022
  H         9.2365930622        8.6809025782        2.4964375232
  H         9.9869931108       10.2736387144        2.4931770110
  C         7.2989702649        9.8046976063        6.7728783389
  H         8.6703781784       11.3923041706        7.0368806291
  H         7.4752442105       11.7184267050        5.8556793259
  C         6.3616491013       10.0967713959        7.9544562789
  H         7.9600832162        9.0159653458        7.0450754839
  H         6.7223397019        9.3233323784        5.9456068293
  C         5.1161207286       10.8276544854        7.5648341317
  H         6.9754264691       10.7047877987        8.6233752866
  H         6.1859759826        9.0970343551        8.4526400956
  C         3.9984370168        9.8870868921        6.9998849790
  H         4.7721917873       11.4276880330        8.3748437989
  H         5.4474266249       11.4911746489        6.7280764352
  C         2.6288988052       10.6686020549        6.9024191699
  H         3.8114613236        9.0591921170        7.6733839100
  H         4.2380012800        9.5088387113        6.0472746372
  C         2.9528228153       12.0408173480        6.2791044033
  C         2.1668393950       11.4614168072        8.1399507843
  C         1.5335072159        9.7288023482        6.2975546794
  C         2.7164669287       13.1541143455        7.0455849633
  C         3.5192601014       12.4182618949        5.0549439747
  C         2.1837560983       12.7798944646        8.2599414323
  C         1.8163453952       10.8449414202        9.3444509270
  H         1.9071590406        9.2320796028        5.3713460440
  H         1.3031160188        8.9886615759        7.0461832564
  C         0.2943347970       10.6032685612        5.9595968944
  S         3.0367534895       14.6185013360        6.3209257065
  C         3.7179399106       13.7889361410        4.9360471553
  H         3.7471222705       11.6484654766        4.3340313718
  C         1.8144241650       13.4548739797        9.3895678356
  H         1.8673103011        9.7488740631        9.2430843979
  C         1.5004375673       11.4599072547       10.5107030795
  H         0.5431208557       11.6432260079        5.5958966030
  H        -0.1871767861       10.8331217376        6.8975820028
  C        -0.6082246854        9.8817556446        4.9234614718
  C         4.0338184286       14.4943641670        3.7157832668
  C         1.3826796706       12.8583143058       10.5665372369
  H         1.9533696934       14.5599374124        9.4358343826
  C         1.1595502501       11.0691758347       11.7763277977
  H        -1.5254501754        9.5105548513        5.3349438108
  H        -0.0861179483        9.0244651225        4.5403133668
  C        -1.0775661130       10.9086867149        3.8203166672
  C         4.0521480543       15.8834392270        3.5195069850
  C         4.5203807244       13.5995880725        2.5461097249
  C         1.0823858589       13.5366154590       11.8626461611
  C         0.8577789825       12.1834263619       12.5742618652
  S         1.0229214349        9.6588806252       12.6325949727
  H        -0.1467655249       11.3362040171        3.4553129276
  H        -1.6892725320       11.6421076573        4.3848909785
  C        -1.9397222525       10.3695944059        2.7555445808
  N         3.7486880739       16.8296493630        4.4491735374
  C         4.5082815596       16.4359511177        2.3156790581
  C         5.0133839799       14.1656936547        1.4068369045
  H         4.5379235713       12.5461470016        2.5670777757
  C        -0.2395192712       14.3736701051       11.8751217634
  C         2.2568857470       14.2247075596       12.5773160910
  C         0.5022306460       11.8044488770       13.8943848222
  C         0.5446533120       10.4556178736       14.0375538275
  H        -2.7947233900        9.8406589241        3.1960214715
  H        -2.2639345128       11.2449418130        2.2564606665
  C        -1.2163937570        9.5654361387        1.7259460162
  S         3.8802632851       18.2629821920        3.6735883839
  N         4.3310006449       17.7659188760        2.2138190589
  C         4.8325572102       15.6328032114        1.1738619439
  H         5.4209646979       13.5982756286        0.6013562957
  H        -0.2614196762       15.2094249451       11.1106004712
  H        -0.2014923905       14.9139128819       12.8726245634
  C        -1.5093165272       13.4816532158       11.5641764859
  H         2.7799215335       15.0297257953       11.9641850005
  H         1.9456785610       14.8366332098       13.4138223624
  C         3.3039808389       13.3872621385       13.1258944510
  H         0.3904217422       12.5210286757       14.6734405468
  C         0.2080393757        9.6706269528       15.3373285067
  H        -1.8852618553        8.7665076936        1.3073524196
  H        -0.4604567541        8.9329813374        2.2179718891
  C        -0.4944718221       10.4086449791        0.5866027802
  C         5.1616080911       16.3161473411       -0.0730073040
  H        -1.3757846540       12.7020179463       10.8538123197
  H        -1.8652949163       12.9928399695       12.4635091415
  C        -2.7199139427       14.2528905275       11.1825765204
  H         3.5289021179       12.6729981842       12.2868072574
  H         2.8430554771       12.9486824934       14.0171854240
  C         4.4586191300       14.2837993626       13.4729095574
  C         0.0830164601        8.2907991317       15.3923010179
  C         0.1382642104       10.3490474207       16.6843808676
  H        -0.0787771893       11.2001839703        1.1689250845
  H         0.3912952583        9.8583288546        0.2003217559
  C        -1.3304696803       10.7885179577       -0.6399716459
  H         4.9840896598       17.3636738547       -0.0666312888
  C         5.5443051933       15.8759268817       -1.3353855199
  H        -2.4698558491       14.9018340332       10.3710140331
  H        -3.1468232251       14.8349474675       11.9719451606
  C        -3.7964107797       13.2271080854       10.8360001512
  H         4.9169910492       14.4308346885       12.5191639072
  H         4.2019561425       15.2131400798       13.8881690509
  C         5.4983764555       13.5837470860       14.2980313484
  N         0.1588298758        7.3435041319       14.2954651917
  C        -0.2311046609        7.6010957386       16.5903792269
  C        -0.2105467536        9.6701487557       17.8671215571
  H         0.2376317146       11.4158106005       16.7141164856
  H        -0.8672058147       11.3954113482       -1.3558994234
  H        -2.2433165191       11.3267861911       -0.3743342222
  H        -1.5013430345        9.8802090588       -1.2760837957
  S         5.6682976052       14.2497510300       -1.9554153542
  C         5.7863245785       16.9796054676       -2.3154073786
  H        -3.2956779582       12.3421237173       10.4772534086
  H        -4.4936114883       13.1472682538       11.6807236163
  C        -4.4971078993       13.8074728246        9.6294957947
  H         5.7129540038       12.5880490680       13.8775281736
  H         5.1208085485       13.5169489893       15.3608643553
  C         6.8175030515       14.1781188947       14.3051667343
  S         0.0116245530        5.8299584837       14.8344231134
  N        -0.3821746106        6.2575592054       16.3449602028
  C        -0.3909237247        8.2052561498       17.8385707391
  H        -0.3699300329       10.2044410034       18.7626326549
  C         5.9324098197       15.1411033296       -3.4769698363
  N         5.9581896408       16.4833785056       -3.5187251221
  O         5.6356365838       18.1745342850       -2.0857577813
  H        -4.7224514738       14.7910172231        9.9838235719
  H        -3.7619495596       13.7937638716        8.8458264870
  C        -5.7504849981       13.0263319273        9.2191291263
  H         7.5002550160       13.6336951097       14.9061760142
  H         7.2112021229       14.1203251500       13.3400262734
  C         6.8228130054       15.6744228337       14.7096049347
  C        -0.7637689009        7.3592751927       18.9195378336
  S         6.2948938085       14.3834739746       -4.9170757917
  C         6.3042161731       17.2244501778       -4.7930620530
  H        -5.5487313678       12.4842448941        8.3239845875
  H        -5.9894687151       12.2844988415       10.0029368368
  C        -6.9224499036       13.9463276120        8.8569139177
  H         6.0040788404       15.6767492677       15.4274823437
  H         6.3907983605       16.2914202507       13.9169591165
  C         8.1951926620       16.2446341493       15.0414650683
  H        -0.4327888952        6.3144269947       18.8515040676
  C        -1.3338032538        7.7522287605       20.0891722531
  H         7.1036586086       16.7561713534       -5.3699760078
  H         6.7195232759       18.1903150138       -4.5266497188
  C         5.0046280003       17.3103796085       -5.6999454667
  H        -7.5128542318       13.4964963158        7.9527929722
  H        -6.6928439078       14.9418641778        8.6021667587
  C        -7.8971819545       14.1842882838       10.0550853178
  H         8.5994765482       16.0218407751       16.0036318824
  H         8.9659434558       16.0510173334       14.2906429024
  C         8.0945247248       17.7399333642       15.0312349497
  S        -2.0528025342        9.2347664419       20.5274914796
  C        -1.3922084085        6.6496046969       21.1809402287
  H         5.2832232793       17.5583742428       -6.7415657758
  H         4.2682962711       18.0570826164       -5.3168686019
  H         4.3654256564       16.4149202452       -5.7338277517
  H        -8.3512603421       13.2614108199       10.5222437695
  H        -7.2636990671       14.7511167623       10.8622262095
  H        -8.6499123677       14.9237777878        9.8128489892
  H         8.3536493120       18.1920910815       14.1066511976
  H         7.0537155342       18.0968613654       15.2956569570
  H         8.7035938073       18.3054641353       15.7642759919
  C        -2.3559647882        8.4205788238       22.0620787810
  N        -2.0921555862        7.1442492482       22.2012306869
  O        -0.8417906442        5.5349215206       21.0944011988
  S        -3.1584609339        9.2215505485       23.3910001260
  C        -2.0474610387        6.4942819909       23.5438390464
  H        -2.1831464429        5.4889435124       23.2906170660
  H        -2.8393814098        6.6998421138       24.2144595643
  C        -0.6094036802        6.6272624465       24.2040312353
  H        -0.6766828639        6.6893730795       25.3337462081
  H        -0.1930652105        7.5971314165       24.0990873270
  H         0.0541121632        5.8600252230       23.8773639633
