352
i =
  H        -2.4723520170       15.2179145901       16.2333478786
  C        -2.8856972933       14.2433037886       16.4964943346
  H        -3.9753556866       14.3689451854       16.8162232627
  C        -2.1050158846       13.5667466948       17.6169686283
  C        -2.8101362861       13.3090473711       15.3678052402
  C        -2.6642708667       13.8327503292       19.0253073525
  H        -1.8737996025       12.4865101001       17.5031394980
  H        -1.1173881824       13.9959596945       17.4388526967
  H        -3.3729682920       12.4676282864       15.7105835018
  H        -3.1946960784       13.7358348649       14.4028788150
  H        -1.8393766964       12.9650339404       15.1359975613
  C        -1.6106384739       13.2830839560       20.0193295872
  H        -3.7429468923       13.4592123636       19.1365479710
  H        -2.6559360212       14.8527143175       19.3877851601
  C        -2.1813655693       13.4367710059       21.4384180265
  H        -1.4515646030       12.2107611596       19.8237879761
  H        -0.7015712402       13.8787043768       19.8374813281
  C        -1.1873541476       12.7600723229       22.3993909949
  H        -3.2077766330       12.9697276180       21.4595484512
  H        -2.4348412457       14.4834445244       21.6576168883
  C        -0.0132231756       13.7747477017       22.6669265360
  H        -1.6455934930       12.4754470849       23.3369670926
  H        -0.7616173487       11.8638512642       21.9314674964
  C         1.1114641844       13.0813193634       23.4391167351
  H         0.4325288252       14.2401600600       21.7802224714
  H        -0.3026815604       14.5695820562       23.2937091222
  C         1.4500203277       11.7546416290       22.8205444369
  C         0.7070042152       12.3663010581       24.6886611070
  C         2.3662621395       13.9627936701       23.6948775034
  C         1.3009421847       10.6532681861       23.7005304478
  C         1.8681425403       11.3548357771       21.5610722548
  C         0.8707612717       11.0496007390       24.9218756314
  C         0.1289831634       13.0158172521       25.7822224366
  H         2.6280159034       14.3929134876       22.7266365668
  H         2.1508733055       14.7416975092       24.3958459631
  C         3.6612069565       13.1818708153       24.1648738689
  S         1.7677981920        9.1243229008       22.9578131780
  C         2.1070643335        9.9976987674       21.5166928490
  H         2.0130562879       12.0425657963       20.7823007708
  C         0.5415155807       10.4871465475       26.0825598238
  H        -0.0775126334       14.1163777333       25.6867874416
  C        -0.2120306800       12.4076160149       26.9551018753
  H         4.0000105628       12.3498080835       23.5635592292
  H         3.5641113370       12.7150340296       25.1116392632
  C         5.0082569710       14.0754743181       24.2514800888
  C         2.5798646352        9.2377135447       20.3020054724
  C        -0.0448340656       11.0624276621       27.2017488663
  H         0.7191371345        9.4878395132       26.2558732378
  C        -0.5252240482       12.9006580166       28.2198899270
  H         5.8184771844       13.5597000010       24.8846911054
  H         4.6532509158       14.9145811520       24.8843230172
  C         5.5760053597       14.5560114546       22.9163502662
  C         2.5746569063        7.8277396751       20.0374536930
  C         3.0705133356       10.0793583636       19.1249566594
  C        -0.4292870516       10.4196892677       28.4667301566
  C        -0.7287912497       11.7915558749       29.0934604784
  S        -0.7893858046       14.3776200929       28.9686271312
  H         6.1504468182       15.3991798142       23.2212328143
  H         4.9482834442       14.8933043987       22.1664820297
  C         6.5085397899       13.5898492307       22.1680666264
  N         2.1682173632        6.7992910508       20.9471781842
  C         2.7996467755        7.2661338984       18.8115254600
  C         3.3575156026        9.4705995824       17.8563811162
  H         3.1383792780       11.1894289413       19.1732465258
  C         0.7330377749        9.7358513745       29.2883514552
  C        -1.7211488694        9.6126150221       28.3878687686
  C        -1.0426835332       12.2161323843       30.3429579983
  C        -1.0824022025       13.5617746900       30.4642809858
  H         7.2450835428       14.1310754757       21.5205028336
  H         7.1043963310       13.0410964193       22.8692173129
  C         5.7497591764       12.6271215471       21.2600019979
  S         2.2016216915        5.3382935648       20.2102203543
  N         2.6478757419        5.8835317532       18.7672990439
  C         3.2533933308        8.0081813766       17.6693065374
  H         3.6912781746       10.1298615868       17.0783956789
  H         1.0290697595        8.7718299216       28.9291167742
  H         0.1462460090        9.4701179900       30.1622555753
  C         2.0552995854       10.5263295010       29.4077680825
  H        -1.6280494576        8.8729587138       27.5883875383
  H        -1.9992962608        9.0711003072       29.2682796741
  C        -2.9198480100       10.4254532495       27.9012437262
  H        -1.2670412298       11.4887011963       31.1259914292
  C        -1.4892673731       14.3635669961       31.6789156465
  H         4.8287254297       12.1752990695       21.6303667109
  H         6.3583819841       11.7293811123       21.2998112074
  C         5.5805856865       13.1369440347       19.8163034680
  C         3.3622215105        7.2389672954       16.4201923173
  H         2.4831550767       10.9991842060       28.4966268948
  H         1.9584597455       11.4013915975       30.1069697869
  C         3.0632797030        9.5390673811       29.9567418418
  H        -2.6909776903       10.9830777663       26.9671476172
  H        -3.1908301190       11.3160518578       28.5648546803
  C        -4.2142679325        9.7549244676       27.6664151440
  C        -1.5930614187       15.7609361967       31.7482852137
  C        -1.6798052462       13.6412541501       32.9704381021
  H         5.1731344677       12.2695857270       19.1802358781
  H         4.8275271425       13.9674908434       19.8655035957
  C         6.8706800000       13.6313082453       19.0516077348
  H         3.3896887665        6.2081196006       16.4980315515
  C         3.6043333114        7.5932223660       15.1078193759
  H         3.1939434134        8.7514463458       29.2475706257
  H         2.6191598354        9.1459622006       30.8897477811
  C         4.2742628281       10.2891026633       30.4480281798
  H        -4.1462641646        8.9368995766       26.9661402443
  H        -4.5147449836        9.1534438258       28.5046962651
  C        -5.3282372208       10.6486312401       27.2148869441
  N        -1.3689447868       16.6973092798       30.7274006807
  C        -1.8793699588       16.4522099379       32.9062563539
  C        -1.9048219973       14.3171309910       34.1694980471
  H        -1.6037549905       12.5429310376       33.0195019040
  H         7.7846864081       13.2434395341       19.5214750313
  H         6.9184683422       13.4722497269       17.9615550634
  H         6.9857567465       14.7129612621       19.1725177155
  S         4.0287111254        9.1308805437       14.5087521868
  C         3.5811761966        6.4505432216       14.0944806160
  H         4.4851408757       10.9934800461       29.6654944490
  H         4.0040328553       10.8564188697       31.3524934847
  C         5.4146333411        9.3262808646       30.6207262498
  H        -4.9062357957       11.4550890065       26.5992921171
  H        -5.6657367257       11.1387593157       28.0979332690
  C        -6.3918214058        9.9925539764       26.4589387128
  S        -1.5015547115       18.2282235308       31.3055646376
  N        -1.8752965273       17.8058363745       32.8187530103
  C        -2.2060491464       15.8007419651       34.1212701861
  H        -1.8682252153       13.7853815242       35.0456451758
  C         4.0337778358        8.3453450131       12.9191736682
  N         3.8805061590        6.9813184312       12.9085623829
  O         3.3382634167        5.2700634227       14.2996932139
  H         6.3265251298        9.9204661105       30.8257883217
  H         5.5045100020        8.7850127197       29.7418942062
  C         5.2344152081        8.2814420911       31.6567298754
  H        -5.9342180066        9.3465087052       25.7404160470
  H        -7.0760921421        9.3645303561       27.0799471843
  C        -7.3372006341       10.8786308417       25.6687425350
  C        -2.5945036372       16.6625037772       35.1837485228
  S         4.5892807729        9.0699379499       11.4070284991
  C         3.8072771920        6.1613728152       11.6700535132
  H         5.8078874202        8.4503327128       32.5331599614
  H         4.2688776967        8.2729863846       32.1096438090
  C         5.5915067253        6.9030112523       31.0679220552
  H        -6.8279573139       11.4957681244       24.9321738533
  H        -7.7429482790       11.7133549151       26.3244885769
  C        -8.6113606045       10.1000294418       25.2066832221
  H        -2.1566657525       17.6042594316       35.1562508342
  C        -3.0435858111       16.3242989598       36.4130697637
  H         4.6233265046        6.4438260793       10.9759615696
  H         4.1459045487        5.1766938836       11.9835927584
  C         2.3910376407        6.1953533560       10.9692150405
  H         5.0776512239        6.6662396804       30.1441987853
  H         5.1773132819        6.0880480329       31.7626377260
  C         7.1184444417        6.5911095894       30.9068796103
  H        -9.2746749015       10.7360755346       24.6203833564
  H        -8.3560148354        9.1408144158       24.7067871665
  C        -9.4555114257        9.9074841545       26.4739583782
  S        -3.6178886546       14.8315392617       36.9931175639
  C        -3.1108378048       17.4075927337       37.4449555906
  H         2.1751322729        5.3792623674       10.2337651637
  H         1.7035177904        6.0778308528       11.8410271035
  H         2.2085593234        7.1496847658       10.4679256710
  H         7.4612143384        5.6538116090       31.2515045525
  H         7.6900643207        7.4475622374       31.3259731017
  H         7.4926195314        6.5513369538       29.8810215831
  H        -9.1962155958        8.9620578633       26.9406910333
  H       -10.4529242362        9.7809517311       26.1066000716
  H        -9.3765458181       10.7880555978       27.1326796463
  C        -3.9227164720       15.5758222779       38.5554800443
  N        -3.6202305482       16.8806638989       38.5700798442
  O        -2.5910900890       18.5233154192       37.3085621920
  S        -4.4918272801       14.7363707770       39.9924093398
  C        -3.5086880068       17.5650198772       39.8282059887
  H        -3.9799208129       18.5149215352       39.7422046362
  H        -4.2233598864       17.1496745742       40.5292121827
  C        -2.1268214640       17.5109963014       40.3901788717
  H        -1.9324379929       16.6087394413       41.0226709913
  H        -1.4181275927       17.5769442118       39.5818798982
  H        -1.8233631288       18.2770147685       41.1199445284
  H         6.9922114291       10.9636857677        2.8763956763
  C         7.5710646657       10.1169241725        3.2077186941
  H         6.8876660633        9.3126064679        3.4303172439
  C         8.4391422850       10.4198105077        4.4786859440
  C         8.4531853418        9.6827238587        2.0574523715
  C         7.4523403899       10.6396811530        5.6854531742
  H         9.1777984388        9.7122479743        4.7066095614
  H         9.0129419598       11.3133002480        4.3533022573
  H         9.2499632112       10.3872790979        1.6487722855
  H         7.8982118661        9.3822148649        1.1618832884
  H         9.0751338484        8.8480284071        2.4231399265
  C         7.1738201338        9.4296720271        6.5491684142
  H         7.8546881602       11.4124440743        6.2772041031
  H         6.4689357511       11.0334823165        5.2629716715
  C         6.7328637660        9.8303415628        7.9011723508
  H         8.1013281434        8.8053178890        6.6659249843
  H         6.3901975249        8.8143757277        6.0460716916
  C         5.4575163194       10.7050228284        7.9881442575
  H         7.5759800888       10.4557176078        8.2784925474
  H         6.7461743384        8.9615727619        8.5010811959
  C         4.1612079739        9.9231828444        7.7406990393
  H         5.4021737708       11.0400458393        9.0209801981
  H         5.5593959908       11.6378813181        7.4460839501
  C         2.8853973948       10.7743109153        7.3889018699
  H         3.9198948411        9.2669537170        8.5567703008
  H         4.3077070217        9.2818307084        6.9228927431
  C         3.2314882879       12.1377302221        6.7058550161
  C         2.4558180134       11.4558252856        8.6463065242
  C         1.7286486216        9.9815210340        6.6294639085
  C         2.8962912985       13.2352649377        7.5408138058
  C         3.8982090241       12.4808825937        5.5156753973
  C         2.3731456834       12.8217049859        8.7312217258
  C         2.1197837087       10.8566483184        9.8547044775
  H         1.8978913029        9.5598034155        5.6396690616
  H         1.3915112542        9.1889867740        7.3322018740
  C         0.5015892508       10.8676394578        6.3277515379
  S         3.1352541925       14.7134792642        6.7008122346
  C         3.8342358635       13.8360866552        5.3406838041
  H         4.3900022431       11.7009911243        4.9277085266
  C         1.9234029196       13.4114701570        9.8760818269
  H         2.1588451971        9.8074558811        9.8937002459
  C         1.6258359554       11.4296503816       10.9659537416
  H         0.7994736836       11.7126591675        5.7555253266
  H         0.0803534224       11.2597901982        7.2296915250
  C        -0.6013699400       10.2160596202        5.5279050198
  C         4.2843428513       14.5219361049        4.0923106525
  C         1.5772213537       12.7734238223       11.0427988661
  H         1.9721109413       14.4790785501        9.9673281343
  C         1.1869271781       10.9786090559       12.2040941106
  H        -1.6047786398       10.6916863173        5.6665943945
  H        -0.6048665986        9.2001681735        5.8279848989
  C        -0.3764911991       10.3793199274        4.0508972979
  C         4.3133722088       15.9503723696        3.8723162894
  C         4.7117611106       13.6601992491        2.9488700431
  C         1.1211311948       13.3981899940       12.3555724126
  C         0.9444524142       12.0638451157       13.0561213263
  S         0.9708069813        9.4400442881       12.9141241312
  H         0.6052933543       10.1664499628        3.6564545796
  H        -0.6230639993       11.3566884147        3.8340777272
  C        -1.2685795054        9.5972843148        3.1610497729
  N         4.0148495198       16.9099987569        4.7773654070
  C         4.5465902226       16.4762238080        2.6219158719
  C         5.1574547396       14.1971302092        1.7786476068
  H         4.4766324435       12.5985019761        3.0239855819
  C        -0.2283602881       14.1836993458       12.1833650528
  C         2.2420165001       14.3386957156       12.9646784197
  C         0.6866216773       11.6634755620       14.3671463078
  C         0.6665847694       10.2390333457       14.4554593766
  H        -1.6852921210        8.6908054474        3.5196718850
  H        -2.1171790454       10.1871540579        3.0432748668
  C        -0.5971978601        9.2713623870        1.8471002718
  S         4.2013372082       18.3559930740        4.1246779589
  N         4.4951916596       17.8765165258        2.6497711650
  C         5.0048244993       15.6810246210        1.5090353231
  H         5.3174606468       13.4268234293        1.0567263876
  H        -0.0262837973       15.1267819658       11.7071833095
  H        -0.5288153910       14.5286587495       13.1582976754
  C        -1.4370586347       13.4832618760       11.4438638088
  H         2.3387003776       15.2193054145       12.2815526030
  H         1.9109912529       14.7762277617       13.9131363031
  C         3.5677913218       13.6275330206       13.2831634571
  H         0.5210274484       12.4118468700       15.0490457756
  C         0.3906193634        9.4717006114       15.7654924650
  H         0.0557274825        8.4513085457        1.9306496094
  H         0.0539926966       10.0370822433        1.5371302329
  C        -1.6312521019        9.0462585841        0.7091223500
  C         5.1915280295       16.3142109945        0.2438011929
  H        -1.1361958302       13.2485842201       10.4734909166
  H        -1.6834651451       12.5777928819       12.0102208242
  C        -2.6487568791       14.4395496282       11.4043925683
  H         3.8845765097       13.0883393748       12.4164535533
  H         3.5134667856       12.8530401737       14.0568258439
  C         4.7250603960       14.4962807797       13.8000522865
  C         0.2513880068        8.0882468021       15.9648871234
  C         0.1761002819       10.3317673621       16.9842205409
  H        -1.9009073989        8.0126834466        0.5686486841
  H        -2.7027010483        9.4216357156        0.9857227530
  C        -1.1695613265        9.7015403998       -0.6127328403
  H         5.0401224423       17.3667549072        0.2069316405
  C         5.5117304508       15.7880028083       -0.9951475923
  H        -2.1886495186       15.4822991578       11.3553947293
  H        -3.2680607126       14.2118829971       12.3178972982
  C        -3.6163163866       14.2540636624       10.2777800458
  H         5.1351554275       15.0865272288       13.0420201365
  H         4.3275912885       15.2606581496       14.4864446121
  C         5.8048892361       13.7471753969       14.5016302666
  N         0.3788946807        7.1707431691       14.9939383541
  C        -0.0685039320        7.5282547421       17.2047214717
  C        -0.1783196979        9.7713532212       18.1801318757
  H         0.0606964214       11.3592355196       16.8216088468
  H        -0.9314179374       10.7911093403       -0.5081974677
  H        -1.8386955843        9.5895059357       -1.4281674445
  H        -0.1836412852        9.2817115160       -0.9399303795
  S         5.8349760019       14.1228178644       -1.4121340890
  C         5.4719789323       16.6817975300       -2.1438286723
  H        -4.1275319517       15.1762096441       10.1117896717
  H        -3.1653020621       13.8491736577        9.4138227797
  C        -4.7149786466       13.2287808171       10.5788648189
  H         6.2199623936       13.0444742861       13.8013599383
  H         5.3414339060       13.1544410852       15.3150705872
  C         6.8879643842       14.6995321060       15.1401625895
  S         0.3859647725        5.6792516655       15.6866791515
  N         0.0821997938        6.1361264917       17.1845434353
  C        -0.4047272499        8.2940306187       18.3559690196
  H        -0.5453737651       10.4249627251       18.9200363274
  C         5.9515283825       14.7090602245       -3.0809032493
  N         5.8590524462       16.0653649528       -3.2488111593
  O         5.2691233125       17.8734351613       -2.0497986867
  H        -4.3319286691       12.4766397875       11.2957480528
  H        -5.4742637350       13.8060821439       11.0581708599
  C        -5.1626528161       12.4555290861        9.3963668430
  H         6.3275878894       15.4868704294       15.5899223896
  H         7.5136275270       14.2037922965       15.8692862790
  C         7.8522075689       15.2856414390       14.0624394500
  C        -0.7905733008        7.6504865470       19.5676085346
  S         6.4241455016       13.7420931805       -4.5269422227
  C         5.9675613903       16.7293719257       -4.5090784694
  H        -4.2548607981       12.3561385602        8.7210533549
  H        -5.4295092806       11.4273599027        9.7856375084
  C        -6.3883991289       13.0821762516        8.8141725687
  H         7.8203684676       14.6991324142       13.1285406804
  H         8.8966429103       15.0909136337       14.3944314475
  C         7.5765504463       16.7094359702       13.6384908588
  H        -0.5124302740        6.6121129420       19.5418136723
  C        -1.3528508899        7.9947043405       20.7534220607
  H         6.7529047205       16.3619049927       -5.1292154131
  H         6.1438466552       17.7963357452       -4.3551672765
  C         4.6033811948       16.7114126379       -5.2251478160
  H        -6.5395684028       12.6956329084        7.8616450124
  H        -6.0694978291       14.1235630957        8.5764673488
  C        -7.6403766037       13.0540421592        9.7093582954
  H         7.9415674852       16.7100098173       12.5712402245
  H         6.5295569110       16.9583041029       13.5338875481
  C         8.4297039806       17.6403587356       14.5161115486
  S        -1.9324238374        9.5252751464       21.2206614205
  C        -1.5490219180        6.8933739003       21.6701065124
  H         4.4685055714       17.5287387730       -5.8858644321
  H         3.8091389599       16.7742108750       -4.4242107359
  H         4.5323146023       15.8062131498       -5.8011904195
  H        -7.7306794797       13.9744914528       10.2607915433
  H        -8.5874928813       13.0701724623        9.1084901924
  H        -7.5004505485       12.2384973238       10.3147808411
  H         8.0080796428       17.5514580704       15.5353200650
  H         9.3922610602       17.2610145541       14.3985156284
  H         8.5048273329       18.6314351980       14.1234614128
  C        -2.1851832323        8.6827935069       22.7634667822
  N        -2.0096658875        7.4167088538       22.8443920446
  O        -1.2763031592        5.7236812682       21.4340433840
  S        -2.7133233727        9.6033868810       24.1305175312
  C        -1.9936246078        6.5982072312       24.0923751104
  H        -2.4068397622        5.6544334216       23.7030032611
  H        -2.7094248427        7.0135970131       24.7846724736
  C        -0.5814724986        6.5163554188       24.6064155389
  H        -0.3631883977        5.4986247389       24.8043186314
  H        -0.4320449794        7.1936844489       25.4093545427
  H         0.1615631264        6.7724799762       23.8891473412
