352
i =
  H        -2.7839527470       14.5589037739       16.4193659757
  C        -2.7426577553       13.5262182263       16.2938804141
  H        -3.7627124368       13.1658390502       16.3728646750
  C        -1.9292936252       13.1056831375       17.4985587169
  C        -2.1765832978       13.1315048045       14.9504526774
  C        -2.3535195309       13.8700761605       18.7687603397
  H        -1.9361716278       12.0768727573       17.5782426192
  H        -0.9003606125       13.3375722834       17.2857851443
  H        -1.5859976516       12.1765959421       15.0534783674
  H        -2.8914270393       12.8756744419       14.2581918499
  H        -1.5072960931       13.9164438477       14.5265180560
  C        -1.3689244776       13.5191945447       19.8302674951
  H        -3.3386293738       13.6292005623       19.1099121277
  H        -2.4036102159       14.9553507121       18.5894934793
  C        -2.0062390370       13.3853339222       21.2099179008
  H        -0.8575884735       12.6242618040       19.5514613069
  H        -0.6657483825       14.3011281186       19.7759529723
  C        -1.0777742527       12.6271543789       22.2374091746
  H        -2.9658524987       12.8694104175       21.1649368362
  H        -2.2226538275       14.4281179704       21.5828478761
  C         0.1111235498       13.5759422503       22.6342244197
  H        -1.4756808257       12.2369299235       23.1931813757
  H        -0.7080832464       11.7311192111       21.7786753093
  C         1.2574842237       12.8659209221       23.3560501864
  H         0.4421808047       14.0117700850       21.6614402196
  H        -0.2570294228       14.4304148492       23.2242643123
  C         1.6106276563       11.6024094334       22.6020425577
  C         0.7621452903       12.1759201032       24.5216261730
  C         2.3987563874       13.8486567421       23.4701030291
  C         1.4029584733       10.4261549302       23.3728324868
  C         1.9786606054       11.1854447466       21.3105367151
  C         0.8659597899       10.8160281794       24.5736390156
  C         0.2156516590       12.7575280598       25.6611657665
  H         2.6678993143       14.2634925913       22.5255441968
  H         1.9615704390       14.6761037502       24.0951706469
  C         3.6214578113       13.1221444159       24.1658948900
  S         1.8787089238        8.9788982511       22.5923447266
  C         2.2841193001        9.8664864108       21.1895800974
  H         2.1320380846       11.9488132462       20.6445628806
  C         0.4241237026       10.1514162109       25.6503570291
  H         0.0968715387       13.8592148837       25.8489695961
  C        -0.1936564880       12.0796630862       26.7630876908
  H         3.8441201511       12.1522285928       23.7161427575
  H         3.3770317127       12.8500159721       25.1803682387
  C         4.8142341585       14.0256969370       24.1626564688
  C         2.7336463884        9.2108673333       19.9101417333
  C        -0.0529323624       10.7430187646       26.8107523791
  H         0.6143459787        9.1155023279       25.7101032167
  C        -0.5644583536       12.5146358971       28.0325729133
  H         5.5547759867       13.8550749331       24.9144205786
  H         4.4720481918       15.0438507065       24.2966263177
  C         5.5447433695       14.1762708041       22.8275261837
  C         2.7190232872        7.8442331570       19.6596172769
  C         2.9725068087       10.0586361425       18.7043823493
  C        -0.4667025045       10.0321034998       28.0669352733
  C        -0.7918149273       11.3889232413       28.8616554858
  S        -0.7870152262       13.9976405066       28.7820233389
  H         6.4286959945       14.8844064906       23.0909301021
  H         4.9120730398       14.6948097548       22.1177489628
  C         6.2117056477       12.9478824404       22.2228159799
  N         2.3777576100        6.8421674349       20.6218056666
  C         3.0321646436        7.2428599731       18.4542189045
  C         3.2762340602        9.4984793161       17.4408941123
  H         3.1571520921       11.1001897841       18.8502164672
  C         0.7392145135        9.2141498126       28.6165626543
  C        -1.7125737617        9.2011213730       27.9608076245
  C        -1.0906089249       11.8208332100       30.1633298808
  C        -1.1192766558       13.1677300916       30.2596820070
  H         7.2293792208       13.1763031696       22.1486998110
  H         6.1558705057       12.0698876462       22.9074256005
  C         5.5740249194       12.5441618488       20.8340902028
  S         2.5358840927        5.3394787299       19.9320648139
  N         2.9396430220        5.8292797466       18.4286870865
  C         3.3517895406        7.9612229905       17.2912262841
  H         3.3892534178       10.1870199359       16.6715181924
  H         0.9382997963        8.3817148857       27.9008064491
  H         0.4500318074        8.7104440027       29.5484453058
  C         2.0367792514       10.0463380184       28.8156658838
  H        -1.3797734312        8.2479153592       27.4438044013
  H        -2.0165379838        8.8880173073       28.9731552922
  C        -2.9217718833        9.9581906671       27.2573706422
  H        -1.3176179966       11.0605520305       30.9139504645
  C        -1.4985261446       13.9502704443       31.4857118433
  H         4.5123182534       12.6011674679       20.8454546542
  H         5.8191210661       11.5293086294       20.6830904880
  C         6.2211376599       13.2699922585       19.6251731773
  C         3.5173918937        7.2585659902       16.0372076597
  H         2.4763106447       10.4694865615       27.8922355116
  H         1.6467526021       10.9426412651       29.3756937558
  C         3.0581964826        9.1315295426       29.3925295447
  H        -2.6707165123       10.4896050752       26.3322884212
  H        -3.2166274211       10.8039851411       27.8144151311
  C        -4.1618840264        9.0726242295       27.0493183506
  C        -1.5501919727       15.3478203424       31.6011198793
  C        -1.9151113967       13.1920467007       32.7020007924
  H         5.7360027853       13.0175602752       18.7008184543
  H         6.1647146224       14.3664382330       19.6830336616
  C         7.6806903612       12.9261962854       19.3405630995
  H         3.1766980270        6.2409985118       16.0484358708
  C         3.8409048384        7.6492731522       14.7775377232
  H         3.2997986476        8.4183044750       28.6345259639
  H         2.4881596727        8.5999860102       30.1643969901
  C         4.1747441084        9.9807790852       29.9997050510
  H        -4.1410409504        8.4835674470       26.0919094592
  H        -4.2430653028        8.4389830982       27.9419932503
  C        -5.4075210648        9.8908370014       26.8193056144
  N        -1.3112530799       16.2116046051       30.5677907660
  C        -1.8366477666       15.9989117653       32.7652374125
  C        -2.2805057914       13.8471805434       33.8993746894
  H        -1.8240551840       12.1074281439       32.7869791562
  H         7.6102100457       12.5880863341       18.3461093593
  H         8.3948624798       13.7460134178       19.4560194952
  H         8.1238261135       12.1561088169       19.9648627461
  S         4.0359124146        9.2612750067       14.2468000424
  C         4.0453554831        6.6572514331       13.7271197172
  H         4.4682721124       10.7857826237       29.2857830716
  H         3.7486192898       10.4304396251       30.9260078657
  C         5.4496896090        9.1351816006       30.3000366753
  H        -5.0690477294       10.8169428202       26.4017254411
  H        -5.8242775896       10.2315986812       27.7990660677
  C        -6.4557840013        9.2308878014       26.0365423542
  S        -1.4516643949       17.7143071030       31.0778628452
  N        -2.0020408656       17.3724123786       32.5396751670
  C        -2.1770378612       15.3319214931       33.9481768986
  H        -2.4139913736       13.3294070772       34.7868503719
  C         4.1883252757        8.5612047492       12.5766564448
  N         4.2517942295        7.2519739606       12.5379113883
  O         4.0938183237        5.4620592328       13.9506497027
  H         6.1058306282        9.8049094635       30.7407693035
  H         5.9072906459        8.7698480995       29.3546021243
  C         5.1490648851        7.9997973941       31.3046866593
  H        -5.9217200460        8.6268891167       25.2824394584
  H        -7.1587785400        8.5339695629       26.5178458694
  C        -7.3719278072       10.2838980182       25.4386717704
  C        -2.6035634685       16.1618035923       35.0178672303
  S         4.5873202347        9.3551637893       11.0375040375
  C         4.3073716227        6.4889366231       11.2856291962
  H         5.8781281482        8.0745468318       32.1158940099
  H         4.1591470172        8.2682888533       31.7116090162
  C         5.1465808467        6.5469304229       30.7126676483
  H        -6.7942162673       10.9876585032       24.8404764070
  H        -7.7069990645       10.9736611469       26.3075726556
  C        -8.4963221468        9.6279317522       24.7069617097
  H        -2.2823975324       17.1817534229       34.9905679378
  C        -3.0485155174       15.8755431738       36.2498373366
  H         5.0640884792        6.7987854570       10.5981287274
  H         4.6683519482        5.4941281146       11.6034798152
  C         2.9340341394        6.3148629572       10.6252543385
  H         4.6183696859        6.5896955895       29.7555947781
  H         4.5680613242        5.8926469294       31.3478942058
  C         6.5603680591        5.9562391609       30.6244098260
  H        -8.7071016121       10.1742659197       23.7482118694
  H        -8.1636398119        8.5733378677       24.4519664452
  C        -9.8054824552        9.6593463942       25.5160889157
  S        -3.5194847613       14.3857770430       36.8208626779
  C        -3.1016963409       17.0456547590       37.1910340131
  H         2.1334501670        5.8353696337       11.2985659910
  H         2.7204914775        7.2987147156       10.1920149893
  H         3.1605513714        5.5839027321        9.8157037103
  H         7.0039470829        6.7014334666       29.8595024814
  H         6.6502359915        5.0066855316       30.1510233182
  H         7.0514350581        5.9262945375       31.5679919066
  H       -10.0520232107       10.6184847087       25.9431678364
  H        -9.9193721001        8.9156131346       26.3010498662
  H       -10.6640510927        9.4543439140       24.9059277127
  C        -3.9159011503       15.3094910070       38.2889023362
  N        -3.6183552261       16.6057116681       38.3317327228
  O        -2.7857875099       18.1664756398       36.9038635552
  S        -4.4566028371       14.4770897292       39.7426474030
  C        -3.6735681965       17.4691546179       39.4729344148
  H        -4.1941011249       18.4113771266       39.2784804313
  H        -4.4651492890       17.0699547449       40.1727738627
  C        -2.3077080939       17.7564797085       40.1595808699
  H        -1.8583541203       16.7825219233       40.4672195291
  H        -1.6703268804       18.2759142803       39.4674980734
  H        -2.2438933673       18.4216689371       41.0089462278
  H         8.0070680135       11.2757360138        3.2335342872
  C         8.5816441918       10.3011648952        3.3918804113
  H         7.8435971464        9.4652954078        3.4105629448
  C         9.3473500555       10.3822095902        4.6820135462
  C         9.4822100486        9.8327088427        2.2753012646
  C         8.5063182801       10.4896647154        5.9165061468
  H         9.9992742752        9.5198219349        4.7658061640
  H         9.9938143003       11.1877910423        4.6675904190
  H         9.9418004581       10.7386974353        1.8951935166
  H         8.9404207572        9.4360605387        1.3998920421
  H        10.3105421802        9.1278268399        2.6138683413
  C         7.7414995333        9.1926562482        6.3594646659
  H         9.0606952477       10.8575232180        6.7569229287
  H         7.7194944565       11.1917184676        5.7429051217
  C         7.1368220641        9.3232903108        7.8327006738
  H         8.4196969058        8.4313066489        6.3489391197
  H         6.9451462473        8.9601119230        5.6617326161
  C         5.7556975500       10.1396295343        7.8167617894
  H         7.8986833514        9.7782235301        8.5001153103
  H         6.9855560522        8.3337988434        8.2660824520
  C         4.4518322598        9.4404159024        7.3065444844
  H         5.6046699636       10.5683086226        8.7881710756
  H         6.0237218719       10.9334513640        7.1275254324
  C         3.2553489737       10.3958892552        6.9210519620
  H         4.1584772121        8.7995607601        8.1688557681
  H         4.6485671832        8.7469029472        6.5470104798
  C         3.6921716110       11.7712999022        6.3039540783
  C         2.8228245951       11.0846489126        8.1799517766
  C         2.0654847513        9.6938904091        6.1416269385
  C         3.4494508841       12.8962158422        7.0996657341
  C         4.2570313129       12.1215908321        5.0688775500
  C         2.8937367405       12.4600000555        8.3272474936
  C         2.1827674726       10.5115084165        9.2930702793
  H         2.3812358245        9.3132795820        5.2056324078
  H         1.8768080864        8.8470782629        6.7566458841
  C         0.8439634235       10.5682368220        5.9838932897
  S         3.7362413645       14.3667586757        6.3203021490
  C         4.3471052903       13.4938506478        4.9429608961
  H         4.4336248902       11.3083176781        4.3279227493
  C         2.3961488639       13.0593029546        9.4775853689
  H         2.1542409070        9.4451494982        9.2670654722
  C         1.8188851281       11.0899214968       10.4757755321
  H         1.0510756111       11.6664631778        5.9944556323
  H         0.3369463592       10.4900794311        6.8897860611
  C         0.0603123820       10.1311519494        4.7862539256
  C         4.7200423346       14.1735864706        3.6875939052
  C         1.8563941979       12.4521162325       10.6112114077
  H         2.6363642325       14.1365846888        9.4690548468
  C         1.3815842740       10.7156531163       11.7193878917
  H        -0.6547851417       10.9011379994        4.7785318723
  H        -0.5170431020        9.1524372305        4.8929105426
  C         0.6803620342       10.2000697575        3.4260803958
  C         4.5821194283       15.5454764949        3.4221559029
  C         5.1566198605       13.2939425471        2.5554229844
  C         1.4521362762       13.1422620335       11.8330027414
  C         1.1707526036       11.8222402019       12.5434511910
  S         0.8730789575        9.2784161870       12.4369203622
  H         1.3332979672        9.3814392660        3.1114660649
  H         1.2071757624       11.1686786062        3.3675285631
  C        -0.4432406234       10.0233811819        2.3874885683
  N         4.2793555028       16.5080428271        4.3981988189
  C         4.8216144312       16.1482624348        2.2182379782
  C         5.4214016867       13.8532183820        1.2962806578
  H         5.3597035004       12.2324065389        2.6163107647
  C         0.1557046427       13.8795713331       11.6337866392
  C         2.6247449860       13.9530276698       12.5407638079
  C         0.9467954634       11.4371425863       13.8585856623
  C         0.7027774148       10.1137239730       13.9470356550
  H        -1.2045515615        9.2845907845        2.6139259459
  H        -1.0088005676       10.9635770568        2.5076566122
  C         0.0244295376        9.9514030135        0.9007264753
  S         4.3261198688       17.9429511156        3.7224048378
  N         4.7188320940       17.5170428929        2.2220205694
  C         5.2625921658       15.3435923679        1.0698851258
  H         5.9345529726       13.2464675573        0.6119029263
  H         0.3353673482       14.7926817108       11.0985169505
  H        -0.2805712819       14.1684445782       12.5764615501
  C        -0.9838948532       13.0942485350       10.9713731031
  H         3.1768134665       14.6184202532       11.8521008449
  H         2.1619557316       14.4556439484       13.4013657025
  C         3.8346873167       13.0831884427       13.0633384605
  H         0.8618419165       12.1555532180       14.6277537024
  C         0.2446764478        9.4272013110       15.2301110728
  H         0.7636828883        9.2113175030        0.7705681560
  H         0.5827164600       10.8786580777        0.6759842015
  C        -1.2087462600        9.9376290555       -0.1092248683
  C         5.4239706053       15.9058266415       -0.2332213769
  H        -0.6297192705       12.6791011106       10.0617579545
  H        -1.3377425259       12.2983401935       11.5623524046
  C        -2.1553092567       14.0281651804       10.6611171077
  H         4.3638557311       12.5895685507       12.2717074753
  H         3.4708587862       12.2798694655       13.6667523176
  C         4.7801396888       13.9575184595       14.0001789677
  C         0.2324838428        8.0360580203       15.4348949630
  C         0.0942310467       10.2410195068       16.4591591619
  H        -1.5026722360        8.9371325223       -0.3602980719
  H        -2.0543072566       10.4029265994        0.4944383693
  C        -0.9778747819       10.8248117317       -1.3233293583
  H         5.3870386487       16.9740827967       -0.2850505611
  C         5.6714448742       15.4103049638       -1.4987812495
  H        -1.7635911726       14.8042734471        9.9531743736
  H        -2.3922001466       14.5257187954       11.6425154686
  C        -3.3566235091       13.2747999119       10.0740620729
  H         5.1342351293       14.9185921632       13.5388712504
  H         4.1594692705       14.3012512349       14.8018774572
  C         5.9942573106       13.2192374331       14.4947784700
  N         0.4383794620        7.0708846395       14.4197807852
  C        -0.0496709734        7.4695414391       16.6597355030
  C        -0.1823163061        9.6261341281       17.6981470776
  H         0.1336961570       11.3400354098       16.4449576847
  H        -0.6691942219       10.2122759800       -2.1247609049
  H        -0.2520402554       11.6230545049       -1.0848513915
  H        -1.8993610191       11.2903520327       -1.7222252140
  S         6.0410876699       13.7618070390       -1.9023152621
  C         5.7296671483       16.4070219363       -2.5988607150
  H        -3.6183987937       13.7490542814        9.0974951684
  H        -3.0556297295       12.2220247299        9.7940315151
  C        -4.6431526348       13.3468411440       10.8896224221
  H         6.6445821733       12.8274280655       13.7104906812
  H         5.6877332042       12.3002972712       14.9926387351
  C         6.7893598788       14.0583071798       15.5234361484
  S         0.2443206197        5.5912297058       15.0994653064
  N        -0.1535789591        6.0881734923       16.5845765039
  C        -0.2914919152        8.1450083764       17.8441906409
  H        -0.2735211020       10.2723089422       18.5887063465
  C         6.2143296701       14.3888381232       -3.4998100659
  N         5.9873005038       15.7280644832       -3.6909471377
  O         5.4098747467       17.5705860018       -2.4898789674
  H        -4.3879329464       12.9917417339       11.9235333349
  H        -5.0384940326       14.3437627041       11.0541500070
  C        -5.7864366742       12.4565308151       10.3124989823
  H         6.1170646377       14.8013724681       15.9713093997
  H         7.3474313127       13.4513569743       16.2670850097
  C         7.7620839816       14.8656365625       14.7049223481
  C        -0.6199608392        7.4400275895       19.0287947685
  S         6.8378047585       13.4436787657       -4.8363936905
  C         6.1070150750       16.3727862929       -5.0301830125
  H        -5.3367296063       11.5311321850        9.9830054993
  H        -6.5221315201       12.0844234028       11.0543533320
  C        -6.5821205698       13.1710396883        9.2039952179
  H         7.1654977971       15.2139730576       13.8114126519
  H         8.7639961487       14.3559263841       14.3612213278
  C         8.2426641162       16.0958568158       15.4663365333
  H        -0.2605747957        6.4773000073       19.0855273971
  C        -1.1861157924        7.8305918062       20.2261000594
  H         6.6564629244       15.8655755304       -5.8357897207
  H         6.7684352130       17.1568143419       -4.8984449841
  C         4.6977327457       16.8814869302       -5.4931628580
  H        -6.6696129103       12.5064079375        8.4168110588
  H        -6.0486955748       14.0876178523        8.8349253069
  C        -7.9625405877       13.5323796672        9.6252777781
  H         7.3872793064       16.4999713316       16.0009163497
  H         9.0487965036       15.8627588427       16.2510466675
  C         8.5467816831       17.2453894391       14.5312207031
  S        -1.8447653776        9.3306896753       20.6223077310
  C        -1.2938497624        6.7808067921       21.2317405725
  H         4.3855864522       16.2139731605       -6.3047307157
  H         4.6884793161       17.9004228659       -5.8042014085
  H         4.0590523054       16.9874620654       -4.6317087837
  H        -8.4783555369       13.9311603240        8.7767279230
  H        -8.5062523334       12.6688679190       10.0568899293
  H        -7.9068070179       14.3111481224       10.3692025106
  H         7.7128281778       17.9423583073       14.4675737785
  H         9.4287186212       17.8465309195       14.8971919070
  H         8.7636669909       16.8357339566       13.5328214017
  C        -2.2249650220        8.6626518066       22.1901253520
  N        -1.9630606497        7.3464575316       22.2304898342
  O        -1.1052377398        5.6126456256       21.0115290257
  S        -2.9563272040        9.4976917090       23.5908802439
  C        -2.0901604490        6.5691387726       23.5165039297
  H        -2.2008062311        5.5352161732       23.3623481260
  H        -3.0173008287        6.9033202513       24.0297111429
  C        -0.8354754252        6.7198142968       24.3811708859
  H        -0.9017942271        7.3921136852       25.1873744872
  H        -0.0514924041        7.0888617128       23.7722827274
  H        -0.5939237154        5.7204870139       24.6472263659
