352
i =
  H        -2.8369380284       14.7949553720       15.7322272269
  C        -3.3757355380       13.8539059276       16.0267370576
  H        -4.3272615964       14.0398809005       16.7029636016
  C        -2.4677114951       13.1901903817       17.0476886277
  C        -3.7630126891       12.9406808303       14.8511144722
  C        -2.8754334215       13.5440191192       18.5317541904
  H        -2.4760175069       12.0905935482       16.8521220891
  H        -1.4638523044       13.5876747230       16.8989715182
  H        -4.4068218144       12.1200165468       15.1826727094
  H        -4.3296108069       13.3807309837       14.0044848933
  H        -2.8299589327       12.5280173303       14.5414593965
  C        -1.8292272964       13.1026638338       19.5046746191
  H        -3.6637316538       12.9412291663       18.9318878018
  H        -3.0663757776       14.5803870326       18.7876775612
  C        -2.2360580116       13.2822482038       20.9814020689
  H        -1.8084323605       12.1456726065       19.3724618246
  H        -0.8355695515       13.3322449206       19.3333846688
  C        -1.3366508451       12.6167223674       22.1198894080
  H        -3.2847968432       12.9936054105       21.0215450351
  H        -2.1488471652       14.3021526444       21.0846006048
  C        -0.0822405188       13.4693442441       22.5906423361
  H        -2.0457968806       12.5157296433       23.0511609665
  H        -0.8691388643       11.6612857188       21.8094601919
  C         1.2107571782       12.8320111582       23.2109057839
  H         0.2251095051       14.1310639299       21.7535288304
  H        -0.4101000152       14.2074241310       23.3647288409
  C         1.5166755523       11.5201197388       22.5353332810
  C         0.7592257724       12.1075206797       24.4200474999
  C         2.3879573363       13.7575025598       23.3901102543
  C         1.1867526841       10.3977194953       23.2765146207
  C         1.8895406061       11.1768903715       21.2411728408
  C         0.7299998797       10.7362591538       24.5267808233
  C         0.3053505955       12.7724119212       25.6141570862
  H         2.6598524917       14.2594582769       22.4894295442
  H         2.0855434523       14.4141725582       24.1439566836
  C         3.6018507322       13.0366245482       23.9790915842
  S         1.4311332085        8.9296374881       22.3987343699
  C         1.9664577634        9.7866701957       21.0110274196
  H         2.1261853965       11.8920137945       20.5017556253
  C         0.2199945737       10.2139982088       25.7214092988
  H         0.3644488231       13.8717094716       25.6483367636
  C        -0.1683593094       12.1653596335       26.7609709916
  H         3.6966749987       11.9915949407       23.4940401718
  H         3.4193718701       12.7156624398       24.9697444636
  C         5.0193053912       13.8251585643       23.9674203679
  C         2.1900505911        9.2212682740       19.7356854096
  C        -0.1920063502       10.8596251790       26.8712670616
  H         0.1804014555        9.1285383766       25.6661069198
  C        -0.4949295290       12.6140202860       27.9661786590
  H         5.6860258523       13.1786865963       24.5181732945
  H         4.9948996293       14.7816288263       24.3845298285
  C         5.6581057184       13.9616208908       22.5259240079
  C         2.1497489264        7.8057677675       19.5167361981
  C         2.8127477632        9.9787282187       18.7522154719
  C        -0.6052328823       10.2117062351       28.2320689166
  C        -0.7865884069       11.5367777046       28.7954533171
  S        -0.7792336283       14.1429358348       28.6683231592
  H         6.3243746491       14.7416401671       22.5788118691
  H         4.9837566147       14.3735932455       21.8457596709
  C         6.2998961540       12.6559183510       22.1132360253
  N         1.6754514472        6.8139945745       20.3731611987
  C         2.5096463730        7.3020339326       18.2535199706
  C         3.2543275427        9.5146180200       17.4437546830
  H         2.7329461397       10.9512137785       18.8798933452
  C         0.6080278169        9.4478941723       28.8841210384
  C        -2.0910271136        9.6018236371       28.1199435435
  C        -1.1996689525       12.0379922963       30.0689875988
  C        -1.1799123271       13.4122497736       30.2041679214
  H         7.0928637275       12.4265758493       22.8601652642
  H         5.5726050688       11.8525805601       22.0855222449
  C         7.0704687979       12.7316183341       20.7464061522
  S         1.8678623366        5.4005630800       19.5644880282
  N         2.5226694783        5.9688529557       18.1886422900
  C         3.0518494527        8.0895630220       17.1354490164
  H         3.4965086873       10.2105648360       16.7824446386
  H         0.9164778985        8.7597711852       28.2342209211
  H         0.3419933535        8.8387808139       29.7068050442
  C         1.8885803616       10.3028000369       29.1986432827
  H        -1.9830569390        8.7677546373       27.4201363270
  H        -2.4061243503        9.3869501969       29.1831713117
  C        -3.1685170382       10.5538882943       27.6828880567
  H        -1.3286527949       11.1505022176       30.7882881851
  C        -1.5780630477       14.2226281290       31.3937324417
  H         7.7327958411       11.7504843872       20.6772367970
  H         7.8614960620       13.4610434471       20.6695708737
  C         6.0938615700       13.0610721374       19.5740260659
  C         3.3980225032        7.3597219239       15.8953044151
  H         2.2472679955       11.0105171573       28.4763720555
  H         1.5772431221       10.9950658961       29.9620147208
  C         3.0727304420        9.5112732097       29.7314765688
  H        -2.7703664683       11.2410177946       26.9148364855
  H        -3.2618087299       11.0823875950       28.6457107702
  C        -4.4402419873        9.8712111898       27.3458520561
  C        -1.5209940984       15.6089068694       31.5461861489
  C        -1.7764457952       13.4337317807       32.5492971229
  H         5.2119607279       12.4131058822       19.7265429267
  H         5.6415052877       14.0095196814       19.7115942245
  C         6.7946627492       13.0099147015       18.2372029359
  H         3.2329003886        6.2999944586       15.9237675913
  C         3.7170720666        7.8488510189       14.6388387398
  H         3.7739890640        9.2601456912       28.9689847494
  H         2.7301634657        8.5648373791       30.2216005041
  C         3.8207229361       10.3484054947       30.8628662406
  H        -4.2812967081        9.0721455367       26.6310700428
  H        -4.8389564571        9.3243561631       28.1317793482
  C        -5.4982668696       10.7823501663       26.9457103417
  N        -1.1943689866       16.4647889605       30.5740907036
  C        -1.8871300274       16.1966854753       32.8033050860
  C        -2.0559867479       13.9481608824       33.8281395323
  H        -1.6262204356       12.3845116409       32.5019486620
  H         6.0858105302       13.1441951304       17.3358692953
  H         7.4291712322       13.9278998958       18.0851407253
  H         7.5387184133       12.2671723102       18.3071289370
  S         3.8621409933        9.4819476781       14.2372423374
  C         3.9299907526        6.8289951981       13.6123204131
  H         3.6944268968       11.3320015662       30.4486096339
  H         3.1731106028       10.2113726771       31.7587353759
  C         5.2399027851        9.8213535880       31.2213405606
  H        -4.9789633013       11.5612246913       26.3290393542
  H        -6.0395693728       11.2018640599       27.8027341070
  C        -6.6440279420       10.0504196432       26.1232702388
  S        -1.2926602780       17.9588082633       31.2253133707
  N        -1.9088965454       17.5845837747       32.7109377595
  C        -2.1594992331       15.4258081178       34.0139634295
  H        -2.2977252120       13.2545714395       34.4856015882
  C         4.2962545541        8.7895123666       12.5833507026
  N         4.3023954979        7.4864672336       12.4400759663
  O         3.8587740837        5.5854953670       13.6731427110
  H         5.6982921509       10.5060182616       31.9821855560
  H         5.7520210789       10.1549491590       30.2777762608
  C         5.3434647149        8.2936894554       31.6503664243
  H        -6.2245366304        9.3118341518       25.5119605128
  H        -6.9608069492        9.4976831879       27.0053028179
  C        -7.7417946201       10.9299487602       25.6424700435
  C        -2.4220733094       16.2317477053       35.1532508575
  S         4.6810393113        9.7084090755       11.1364237332
  C         4.4019436207        6.6662386184       11.2928435497
  H         6.0561984343        8.3048467626       32.4521142120
  H         4.4658315559        7.9802846537       32.0142316297
  C         6.0751610409        7.5446068941       30.5768952610
  H        -7.3494885619       11.3733552402       24.7046989222
  H        -8.0887271894       11.5665930528       26.3996748588
  C        -8.8559667860       10.1032646545       24.9622583156
  H        -2.3681601284       17.3445957137       35.1617915453
  C        -2.8094562876       15.8451177471       36.4324436415
  H         4.9600439426        7.0530169208       10.4864293134
  H         4.7584219744        5.6556173869       11.4623068250
  C         2.9343826460        6.2988530430       10.8696742886
  H         7.0695213823        7.8898149098       30.5563455831
  H         5.6233099259        7.8582650725       29.7282693290
  C         6.0172469399        6.0044753002       30.8711927866
  H        -9.2647869601       10.6113857789       24.0834068984
  H        -8.4059041232        9.1762324982       24.4492195105
  C       -10.0582881418        9.7858016422       25.8276931477
  S        -3.1134870462       14.2169808565       37.0484378269
  C        -2.9826500970       16.9665570255       37.4857117199
  H         2.8171912859        5.3447476205       11.3370404277
  H         2.2802080170        7.0579517613       11.3947156465
  H         2.6373221046        6.3221777911        9.8057348285
  H         5.0102941040        5.7591089469       31.0244631624
  H         6.4312079411        5.9465173814       31.8360536283
  H         6.4863531879        5.4095252579       30.1636951335
  H        -9.8557221897        9.1740192909       26.7670553527
  H       -10.7385584656        9.2403780933       25.2269606559
  H       -10.6255587622       10.5964977600       26.2360967692
  C        -3.5547052545       15.0162001905       38.5671902272
  N        -3.6115354448       16.3648248094       38.4971887757
  O        -2.7132941828       18.1276786098       37.2772024581
  S        -4.5236531418       14.1920273104       39.8093924555
  C        -3.8881539970       17.1981041448       39.6706076627
  H        -4.0828472885       18.2413225155       39.3844337571
  H        -4.8007564948       16.8456845531       40.1420046609
  C        -2.7978208733       17.2732646062       40.6441687722
  H        -3.0660037035       17.0018691366       41.6219639988
  H        -2.0461066909       16.7539323187       40.2145051484
  H        -2.3106026600       18.2627539890       40.6981645772
  H         7.3055292204       11.4438610214        3.1216825110
  C         7.8639898365       10.5727689310        3.1102457407
  H         7.1491103248        9.8432869943        3.0749512927
  C         8.6479367333       10.6074065043        4.4057576381
  C         8.6882923866       10.3278050188        1.8497247481
  C         7.9038959660       10.6981900916        5.6570977056
  H         9.3523011374        9.8385363633        4.4347353354
  H         9.1609382980       11.5133770888        4.4870732002
  H         8.1059665995       10.7897068069        1.0526013127
  H         8.9508743728        9.3200079612        1.7550530404
  H         9.5221766142       11.0136979705        1.9608625329
  C         7.1810904015        9.3667615484        6.0867338595
  H         8.6604740658       11.0072800415        6.4316311005
  H         7.2974946594       11.6703116560        5.7495869173
  C         6.4820314435        9.1663848246        7.4152343603
  H         7.9379314424        8.5946980323        5.9021850957
  H         6.3944342355        9.1775662583        5.3405397640
  C         5.4810014788       10.2806045574        7.7878860179
  H         7.1012431682        9.3337074566        8.3168674241
  H         6.1432680245        8.1597633497        7.7426430119
  C         4.0134956341        9.7254366348        7.3691902008
  H         5.5815829229       10.4376136226        8.8282079090
  H         5.6951254377       11.2036005589        7.3041000447
  C         2.8137790340       10.7155542132        7.1175240177
  H         3.7523745691        9.0574086274        8.1132573622
  H         4.2648585006        9.0229116563        6.4520760526
  C         3.1550482922       12.0223321745        6.4538065777
  C         2.3277041673       11.4500503872        8.2152097507
  C         1.7160123043       10.0173143149        6.3894954298
  C         2.9399411371       13.1383321185        7.2324073774
  C         3.8076771989       12.3573291731        5.2322576265
  C         2.3209255627       12.7675785628        8.3704552710
  C         1.8909204996       10.8055007280        9.3388763972
  H         2.0606117195        9.5548778852        5.4141283620
  H         1.3783658603        9.0783154686        6.7917833388
  C         0.4654568699       10.8276122887        5.9635314236
  S         3.3130996729       14.6676729437        6.3786515269
  C         3.8937328615       13.7603785962        5.0674781290
  H         4.2521405198       11.5555601564        4.7458437505
  C         1.8922501149       13.2961332531        9.5871717265
  H         1.8395104038        9.7156499634        9.1227423816
  C         1.4439156629       11.3125296043       10.5254457514
  H         0.7820114825       11.8440343027        5.6553015636
  H         0.0173733449       11.0406685136        6.9424548346
  C        -0.4301829100       10.0252328353        4.9341963052
  C         4.3521882038       14.3842240541        3.8168834079
  C         1.3738617585       12.6427735618       10.7015487399
  H         2.0110354434       14.3429410092        9.7532489326
  C         1.0412306339       10.9072353829       11.7562087356
  H        -1.3921631498       10.1757445154        5.0893443067
  H        -0.2967208039        8.9398536668        4.9560937493
  C        -0.1623789813       10.5848401626        3.5774633090
  C         4.2794049022       15.7895483330        3.4536920385
  C         4.7261413560       13.6256734898        2.5625661565
  C         0.9192156280       13.3144782994       11.9577529368
  C         0.7272266978       11.9893136841       12.5640545198
  S         0.9831976984        9.4093707788       12.5824642771
  H         0.9855830650       10.7260960801        3.4437830490
  H        -0.7105650374       11.5284690488        3.4750053486
  C        -0.7092317573        9.7669865694        2.4000927670
  N         3.9328397645       16.7749040816        4.3724362322
  C         4.6302756031       16.2854267547        2.1727146816
  C         5.1168618509       14.1582993631        1.3201913971
  H         4.5496839794       12.4376004706        2.6633036994
  C        -0.3822004504       14.0652824874       11.6793901217
  C         1.9572014439       14.1558032318       12.8427036339
  C         0.1078546499       11.5338401861       13.7687076865
  C         0.2703434411       10.1622990017       13.9230293504
  H        -0.7448694192        8.8115174623        2.7915208162
  H        -1.7201416978       10.1515038449        2.3203366499
  C         0.0753094206       10.1071167515        1.2144175709
  S         3.9067230758       18.1692289523        3.5421479800
  N         4.4836265025       17.6684841206        2.0886150745
  C         5.0403558420       15.4975263968        1.0685030423
  H         5.3995227943       13.3637776936        0.6190431810
  H        -0.2500259476       14.9832059356       11.1175469704
  H        -0.7357217011       14.4662521874       12.5554999316
  C        -1.4646978232       13.2679765057       10.9704207413
  H         2.2140665448       14.9464596337       12.3000667850
  H         1.4509448987       14.4699302307       13.7292776338
  C         3.2627544409       13.3594466695       13.2318189830
  H        -0.2831095694       12.3834685066       14.3771676479
  C         0.0312053369        9.5242578846       15.2049788927
  H         1.1159463033        9.9600901674        1.3779211426
  H         0.1762566736       11.1726819617        0.8460420176
  C        -0.3198197809        9.0344703038        0.0626001232
  C         5.2718361229       16.0912483397       -0.1951940916
  H        -1.0585115395       12.9684318752       10.0281477351
  H        -1.6850020360       12.3366125839       11.6003292048
  C        -2.6994598651       14.0784807421       10.8512401579
  H         3.5516333552       12.7957397544       12.4153045250
  H         3.1304043978       12.6270231371       14.0153186338
  C         4.4276261733       14.2069254772       13.6547601884
  C        -0.1006160828        8.0947355098       15.4024551877
  C        -0.2832065143       10.3514021103       16.4378820046
  H         0.5625741174        8.5252980460       -0.1061445102
  H        -0.9679924689        8.4090907644        0.5613869956
  C        -1.0457938103        9.5696369110       -1.1965845657
  H         5.3656032082       17.1737983439       -0.0917859101
  C         5.4617572121       15.6620095156       -1.4739240781
  H        -2.4995405874       14.8734302714       10.1738537271
  H        -3.0635728109       14.5816947375       11.7659154527
  C        -3.8813923276       13.2920469447       10.2738907973
  H         4.6124003172       14.8483706300       12.7749021174
  H         4.2175108276       14.7571788774       14.5382349030
  C         5.6689275637       13.2787336979       13.7578879107
  N         0.3217313120        7.1219154174       14.4584853856
  C        -0.4681702138        7.5819477094       16.6086632118
  C        -0.6613927042        9.7185567388       17.5987160440
  H        -0.3657942438       11.4335016791       16.3845613493
  H        -2.0288058660        9.8766840913       -1.1928907267
  H        -0.8637925933        9.0290569612       -2.0658609294
  H        -0.6086027899       10.4395635393       -1.5672835370
  S         5.6536910642       13.9696363832       -1.9458329948
  C         5.5189701979       16.6207458817       -2.5499419641
  H        -3.5651271314       12.3833416680        9.6409663945
  H        -4.6377156608       12.8615848744       11.0493052740
  C        -4.8136257968       14.0767893174        9.2942831739
  H         5.7843915814       12.4342267715       13.1086109590
  H         5.7942163527       12.9627238869       14.8668410469
  C         6.8545679490       14.1545599785       13.4903852000
  S         0.1743695844        5.6941596159       15.1424292667
  N        -0.2998846533        6.1768174613       16.6241523833
  C        -0.8001158537        8.3235236741       17.7714392558
  H        -0.7494446936       10.4156619156       18.3759089345
  C         5.8417393012       14.5627419700       -3.5474386254
  N         5.8310578991       15.9252078977       -3.6456015088
  O         5.1797823275       17.7732099548       -2.4669190444
  H        -4.9309952951       15.0482852088        9.6710726584
  H        -4.2447466810       14.2604419039        8.3507530083
  C        -5.9760343333       13.2897108494        8.7032650227
  H         7.7376474106       13.5780024799       13.5830130751
  H         6.6975721570       14.5284636401       12.5538691395
  C         7.0431588014       15.4005887055       14.3553582673
  C        -1.0307476738        7.5993671496       19.0069612923
  S         6.2392007246       13.7074399538       -4.9834942124
  C         5.8463845410       16.7032128456       -4.9675689162
  H        -5.8680240323       13.0800264789        7.6455222005
  H        -6.0875756524       12.3678126560        9.1977235582
  C        -7.3633686583       14.0602589858        8.8836921380
  H         7.2471264774       15.1049458853       15.3994259137
  H         6.1726365365       16.0760886795       14.4594596143
  C         8.3500371931       16.1083491253       13.9565240760
  H        -0.7742374337        6.4900338151       18.9749383271
  C        -1.6439742770        7.8808195740       20.1796319556
  H         6.4172908695       16.3495593213       -5.6948746800
  H         6.2860763946       17.6242675009       -4.5074998474
  C         4.4626072431       16.8834563203       -5.5372086263
  H        -8.1531261825       13.7010031043        8.2751990459
  H        -7.1427524845       15.0738607916        8.6911357855
  C        -7.9346173669       13.9139309396       10.3010539390
  H         9.1655178780       15.5461716255       14.1311052431
  H         8.4116063407       16.3027115626       12.8625375448
  C         8.5001260670       17.5985352014       14.5100550746
  S        -2.2125091565        9.5227354155       20.5669428760
  C        -1.8467152063        6.8908004290       21.1995471586
  H         3.4918271245       16.8329750933       -4.8955625602
  H         4.2418707821       16.3177422539       -6.4580898807
  H         4.4535910630       17.9572623201       -5.9080628313
  H        -7.1543767292       14.1637507024       10.8893738281
  H        -8.7967302326       14.5373380088       10.6268168234
  H        -8.1201353638       12.8401080005       10.6394618548
  H         8.8998354488       17.4693456590       15.4780718978
  H         9.2789584087       18.0397913879       13.8317269031
  H         7.5561156231       18.0788921241       14.6645381686
  C        -2.6624653327        8.8188236390       22.0833886419
  N        -2.4775739044        7.4386584225       22.2437902911
  O        -1.4309044932        5.8053430978       21.1149998734
  S        -3.2566764550        9.8334720712       23.4276079179
  C        -2.6426983340        6.7383565427       23.5627380660
  H        -2.6152243742        5.6186867788       23.4676517195
  H        -3.6276522928        7.0209176081       24.0678582991
  C        -1.4833812638        7.2760253046       24.3170135630
  H        -0.6837394097        6.5587245491       24.0637171088
  H        -1.6803807874        7.2297030769       25.4214869011
  H        -1.2426125947        8.2737274454       24.0481192855
