352
i =
  H        -1.7824131780       15.0439409032       16.2776133165
  C        -2.1575660638       14.8940136419       17.2465533887
  H        -1.7717955620       15.7445305587       17.8095842364
  C        -1.6404109147       13.5687532784       17.8053727188
  C        -3.6443567810       14.9805485350       16.8605502851
  C        -1.3620560012       13.4851767722       19.3062820787
  H        -2.2745151263       12.7444177629       17.5195418817
  H        -0.7173047339       13.3476330908       17.2014792729
  H        -4.3177050773       14.2908726786       17.3819668973
  H        -3.9530011977       16.0500277333       16.8928090606
  H        -3.6750687717       14.6563803064       15.7992250125
  C        -2.6224439488       13.3537487458       20.1059065186
  H        -0.9112127115       14.3949094575       19.6188904772
  H        -0.6406623614       12.6969228861       19.4921828514
  C        -2.4330819019       13.4868778656       21.6222603781
  H        -3.2566298613       14.1819370017       19.7691376896
  H        -3.0507468294       12.4168397637       19.8625876400
  C        -1.2225965641       12.7409877668       22.2437760389
  H        -3.4183782726       13.1154269231       22.0184470645
  H        -2.4458829543       14.5561331324       21.9340710361
  C         0.0012870359       13.6417451274       22.4541023011
  H        -1.5996644801       12.4532502200       23.1581066220
  H        -1.0155903716       11.9177351642       21.5644710100
  C         1.1869615965       12.9505069448       23.1793234838
  H         0.4107088332       13.9597836341       21.5269738132
  H        -0.3924007873       14.4983838377       22.9425614222
  C         1.5129756765       11.6473168917       22.4993203159
  C         0.7004816540       12.3059732787       24.4236434957
  C         2.4218887001       13.8222035032       23.2185082455
  C         1.2112323677       10.5920097476       23.2913912388
  C         2.0170661171       11.1576682518       21.2500679343
  C         0.6769565525       11.0069480062       24.4978408643
  C         0.3111409552       12.9353901755       25.6136168098
  H         2.6864850398       14.1728169126       22.2047165239
  H         2.1378773538       14.7100047207       23.7941127911
  C         3.5867909059       13.0852156587       23.8353903391
  S         1.4753918893        9.0067885448       22.6563230654
  C         2.0573643694        9.7830885268       21.2137377507
  H         2.2414339898       11.8729496573       20.4524134504
  C         0.1881062444       10.3836122433       25.6041524156
  H         0.3376462084       13.9792803848       25.6313019021
  C        -0.1797854324       12.3400435588       26.7566452101
  H         3.8758340485       12.2957811826       23.1604637924
  H         3.3190315965       12.5647600199       24.7655627838
  C         4.7767483142       13.9972308352       24.2032641538
  C         2.4611803892        8.9730486628       19.9943344086
  C        -0.1893880173       10.9638076527       26.8579291823
  H         0.2151674564        9.3271211138       25.6166867802
  C        -0.6888027800       12.6563040593       28.0655464598
  H         5.6511143876       13.5152859073       24.6479722993
  H         4.3600947541       14.6802405100       24.9314329225
  C         5.3023788314       14.6990494253       22.9435611420
  C         2.3705124789        7.5757586622       19.7426921232
  C         3.1088938683        9.7425552036       18.9298808823
  C        -0.8118005467       10.2333810862       28.0743913096
  C        -1.0998627647       11.5733809556       28.7717439998
  S        -0.7922463905       14.2098904590       28.7966929404
  H         6.0800371616       15.3918405745       23.3173914535
  H         4.4507437699       15.3011975472       22.4610869683
  C         6.1068982641       13.8248180224       21.9356142644
  N         1.8650540827        6.6536031153       20.6859076584
  C         2.7532289678        6.9803542419       18.5349645542
  C         3.3799869972        9.1800861180       17.6376736694
  H         3.4276170744       10.7708149566       19.1269250070
  C         0.2238280017        9.4770741116       28.8959190856
  C        -2.0834536928        9.5143312784       27.5813100101
  C        -1.5609348347       11.9113616811       30.0100510504
  C        -1.3768116137       13.2930317810       30.1781134379
  H         7.2119738785       14.0249219472       21.8872968522
  H         6.0573885370       12.7726886630       22.2575293649
  C         5.4540841172       13.9542739750       20.5689612391
  S         2.0389848601        5.1510266476       20.0509097939
  N         2.6733263858        5.5750727106       18.6007793639
  C         3.1991249658        7.6763644128       17.4052365671
  H         3.7971761286        9.9075274437       16.9166704658
  H         0.8289858509        8.8276468595       28.2196000200
  H        -0.2906843195        8.6859777265       29.5597791833
  C         1.3711285155       10.2843460917       29.6042119222
  H        -1.9143466205        8.8896066404       26.6874378486
  H        -2.3718394859        8.8142346921       28.3123821308
  C        -3.2728853694       10.3860233918       27.2678902315
  H        -1.7145412242       11.1020757760       30.7470840008
  C        -1.6605273228       13.9168185067       31.4787299289
  H         5.4052580122       14.9712444694       20.1931649257
  H         4.3664214605       13.6233074398       20.6974676459
  C         5.9482037593       13.0132826816       19.5430541563
  C         3.3396387191        6.9359965876       16.1713001055
  H         1.5739252835       11.1918114286       28.9959923307
  H         1.0377818719       10.6926884506       30.5732217535
  C         2.6803005656        9.4832472837       29.9030850654
  H        -2.9512857295       11.0055736267       26.4822147433
  H        -3.6009703512       10.9945379556       28.1142537183
  C        -4.4291473073        9.5021603060       26.8895635013
  C        -1.5776293097       15.2933878106       31.8062881285
  C        -2.0503245797       13.0407637939       32.7137955291
  H         5.8330512096       11.9441271565       19.8046510241
  H         5.3015114780       13.1197649744       18.6949880179
  C         7.4093794706       13.3318120072       19.1585133984
  H         3.2622699699        5.8337919942       16.1913728296
  C         3.6563509764        7.4342211798       14.8644502696
  H         2.9674944682        9.0000326525       28.9969972585
  H         2.4650911613        8.6520310930       30.6468833796
  C         3.7904324269       10.2779697309       30.5492652395
  H        -4.0058782553        8.8200743623       26.1288264345
  H        -4.8249523783        8.9722064146       27.7688910942
  C        -5.5526331347       10.2857100999       26.3216838275
  N        -1.3709826446       16.2558485128       30.9104991508
  C        -1.9205184700       15.7868635555       33.0368694540
  C        -2.3114189477       13.5972779284       33.9489870250
  H        -1.9949698247       11.9292535208       32.6264359493
  H         7.3739777793       14.2973201565       18.6201727743
  H         8.0807365181       13.4993079550       19.9948445669
  H         7.8701514622       12.6203993020       18.4867534221
  S         3.8789472516        9.1191790263       14.3580316154
  C         3.7101268722        6.4241412614       13.7751280984
  H         3.7785230148       11.2860343413       29.9478914046
  H         3.5921263476       10.6267035287       31.5759942239
  C         5.1567741030        9.4895504417       30.4528484943
  H        -5.1075662941       10.7290931817       25.4624763494
  H        -5.8908220772       11.1900375424       26.8434738406
  C        -6.7245886015        9.4054169295       25.7883833257
  S        -1.5557185991       17.7511190638       31.5303982659
  N        -1.9920695608       17.1518331113       33.0242264038
  C        -2.2121192576       15.0257209181       34.1973158652
  H        -2.4247648858       12.9566701277       34.8129636047
  C         4.1299832947        8.3758042995       12.7886303159
  N         3.9264556915        7.1061994264       12.6061171451
  O         3.5424073794        5.2310694293       13.8920905659
  H         5.9445545201       10.2216401174       30.4412392913
  H         5.3721223621        8.9463348357       29.5667001516
  C         5.3998670607        8.6204631429       31.6471722878
  H        -6.3218926519        8.7305789210       24.9865533780
  H        -7.2231102327        8.7352314090       26.4914869046
  C        -7.8104120280       10.1873486956       25.0508800208
  C        -2.6035634355       15.6796418518       35.3982491253
  S         4.5800998274        9.2307590847       11.3389163087
  C         4.0305522651        6.4248170605       11.3712976361
  H         5.7286565104        9.2915846201       32.4896055278
  H         4.4404137205        8.1916889184       31.9294929206
  C         6.4377173433        7.4894298973       31.5613655470
  H        -7.7083600226       10.0517291232       24.0418284905
  H        -7.8219626877       11.2297844915       25.3118778935
  C        -9.2211915208        9.5664910624       25.4416489616
  H        -2.3260804866       16.7442440667       35.4400087477
  C        -3.1568219212       15.3043708532       36.5692541919
  H         4.8794319460        6.7707854654       10.7480968273
  H         4.3013106211        5.4036314298       11.6417549205
  C         2.6443203213        6.4464359885       10.7072782916
  H         6.8245911805        7.3533308078       32.5825982375
  H         7.2355816050        7.7383107234       30.8825792080
  C         5.7678236640        6.1438745524       31.2079416179
  H        -9.9062748440        9.9046491487       24.6476216249
  H        -9.2719361655        8.4693685715       25.3158314226
  C        -9.6490351757       10.0769623122       26.8731488615
  S        -3.6532497771       13.7313391182       37.0751140783
  C        -3.1883512317       16.3979660363       37.6226558830
  H         2.7631786390        6.6812349249        9.6424096294
  H         2.1391800140        5.4649067069       10.7164565953
  H         1.9904116971        7.1923228473       11.1247473116
  H         5.4679143028        5.5709418680       32.1173368711
  H         6.4757835326        5.4590338494       30.8139609079
  H         5.0030535326        6.3683223862       30.5503521262
  H       -10.5405786821       10.6830482177       26.6369787562
  H        -8.8514062103       10.6535332746       27.3112030415
  H        -9.9184581935        9.2402832048       27.4569717905
  C        -4.0320395817       14.5503559733       38.6366037831
  N        -3.8007654765       15.9255151147       38.7053459377
  O        -2.9161868813       17.6229661876       37.4812756674
  S        -4.8488893989       13.8226663340       40.0255786063
  C        -3.9173577398       16.6950848450       39.9341708754
  H        -3.9353583453       17.6639770631       39.5350699577
  H        -4.8981154948       16.6168549704       40.4938221844
  C        -2.6982910316       16.5346745378       40.7916877265
  H        -1.8528622800       17.0498007314       40.2911700053
  H        -2.8322699351       16.9796619927       41.8258249762
  H        -2.5293374718       15.4560772900       40.8824361181
  H         7.2718633645       11.2539409346        3.0014897198
  C         7.8058414047       10.3472426130        3.3164290965
  H         7.1080241523        9.5685393406        3.4265611209
  C         8.7019708144       10.4562655301        4.5579179650
  C         8.6752701136       10.0576309965        2.1134067497
  C         7.9316392296       10.4640629497        5.8074974697
  H         9.3067341565        9.4889137852        4.6132441106
  H         9.3320257126       11.3684549540        4.5872492378
  H         9.7222391240       10.0828276362        2.4801892016
  H         8.4903767772       10.8209926591        1.3265053388
  H         8.5321447657        9.1003852456        1.6367104798
  C         6.9728095695        9.2965440813        6.0984461860
  H         8.6766761018       10.4303864374        6.6240229038
  H         7.3025281460       11.3897535996        5.9531648289
  C         6.4025532626        9.2373510456        7.5178282856
  H         7.4799547259        8.4044717229        5.7630080699
  H         6.1314491643        9.3763600150        5.4077324436
  C         5.0903952805       10.0646331983        7.6805561465
  H         7.1440450884        9.4659504434        8.3201497996
  H         6.1600977477        8.2180149316        7.7114364253
  C         3.9415410128        9.3927545433        7.0190513668
  H         4.8855315731       10.1824227350        8.7845998515
  H         5.4802010445       10.9705874119        7.2906480486
  C         2.7435535794       10.2932233677        6.9905420210
  H         3.6963797610        8.5804176692        7.7467927635
  H         4.0370741383        8.8750633901        6.0423441610
  C         3.2094236505       11.5856599215        6.3109982190
  C         2.3540283703       11.1196901881        8.1985791463
  C         1.5621714916        9.5879428652        6.2124097272
  C         3.0021776142       12.7635746269        6.9955130335
  C         3.8068342900       11.9399206431        5.0247971542
  C         2.4874902372       12.4678775928        8.2511548679
  C         1.9801120047       10.6044684579        9.4220102679
  H         1.9225360975        9.0973310192        5.3131206428
  H         1.3026440494        8.7333732773        6.8054461293
  C         0.3406548862       10.4310769714        5.9084297145
  S         3.4069759235       14.1961973511        6.1839394815
  C         3.9180365981       13.3056030223        4.8081379889
  H         4.0404679899       11.1685645433        4.2875116152
  C         2.0395116528       13.1663243889        9.3530470892
  H         1.9926915251        9.5035885785        9.5210845235
  C         1.5907164134       11.2636320143       10.6016871581
  H         0.4987913627       11.4331592988        5.5253460895
  H        -0.2076042351       10.7078588496        6.8337357523
  C        -0.5781413807        9.7384327808        4.9430792990
  C         4.4204922105       13.9697436455        3.5850851797
  C         1.5323007917       12.6239783727       10.5749227024
  H         2.1026030154       14.1912496812        9.3597343834
  C         1.2061095148       10.9106385711       11.8231637566
  H        -1.5249968629       10.2850874032        4.8781924645
  H        -0.9951191202        8.8182661012        5.2858197384
  C         0.1059922559        9.6544292506        3.5955235851
  C         4.4787413020       15.3811240246        3.3859284214
  C         4.7285080800       13.1795502927        2.3877187531
  C         0.9703295123       13.3295518311       11.8185039843
  C         0.7887390011       12.0300932404       12.5452319595
  S         0.8778294117        9.4588214300       12.6288971819
  H         0.7012146029        8.7648743338        3.5261351731
  H         0.7762376508       10.4267425753        3.4101234651
  C        -0.9500477628        9.6567764616        2.4639651071
  N         4.1405552244       16.2973938268        4.3806634655
  C         4.7302233481       15.9738386542        2.1475792166
  C         5.0985099173       13.7572913655        1.1664735401
  H         4.7245127945       12.1402696159        2.3965319404
  C        -0.3185119444       14.1588499384       11.6448188872
  C         2.1365456710       14.2043494908       12.4422288221
  C         0.3859369159       11.6610955482       13.8398022966
  C         0.3649963829       10.2744885202       14.0835983257
  H        -1.4855030435        8.7392884632        2.5217984193
  H        -1.6511141473       10.5243271310        2.6734612099
  C        -0.2967014346        9.9267972497        1.0893187328
  S         4.2364098497       17.7845699858        3.7278884413
  N         4.5374075087       17.3621276393        2.1613258108
  C         5.0745257728       15.2559121739        0.9751612738
  H         5.2968559453       12.9915587486        0.3691898073
  H        -0.0197608213       15.1420037280       11.3465192565
  H        -0.8320203343       14.2865187392       12.5877754155
  C        -1.2211184739       13.5374813786       10.6259864972
  H         2.5429501420       14.8916148563       11.7042699156
  H         1.6772776196       14.7399737430       13.2990019304
  C         3.3458807714       13.3874054324       12.9300572734
  H         0.1426725229       12.3744961452       14.5573847600
  C         0.0640472176        9.5580209412       15.3607782350
  H         0.4425952222        9.2331948084        0.8953452623
  H         0.1113155301       10.9571483633        0.8464325480
  C        -1.3646036272        9.7562967190        0.0220974010
  C         5.1981418663       15.9864156767       -0.3247031464
  H        -0.9895790447       13.9543777815        9.6337015572
  H        -1.0705546459       12.4647194142       10.5209272724
  C        -2.7455468782       13.7983308849       10.9418079697
  H         3.8440533397       12.9528237819       12.0052994615
  H         3.1632969501       12.6068329182       13.6581134865
  C         4.2768787443       14.2378458052       13.7340344595
  C         0.0965043636        8.1459062550       15.5831118474
  C        -0.2061209740       10.3584255343       16.6294201755
  H        -1.7347429608        8.6691993987        0.0821906880
  H        -2.2410365302       10.4109600319       -0.0237599038
  C        -0.6840926950        9.8881212051       -1.3154525752
  H         4.8180507273       16.9740463451       -0.2871764122
  C         5.3904378962       15.5168035982       -1.5794794977
  H        -2.8350480447       14.9014232557       11.0226213572
  H        -3.0646642340       13.4888683664       11.9712535865
  C        -3.6618889680       13.1235281204        9.9022709627
  H         4.3702288401       15.1995081083       13.1316056621
  H         3.8014677453       14.3515925570       14.6805341166
  C         5.6144523000       13.5470384193       13.9821255325
  N         0.5275419385        7.2308050268       14.6182829564
  C        -0.1681086575        7.5213588228       16.7842946181
  C        -0.4608470619        9.7368931380       17.8259353315
  H        -0.2696367551       11.4242879240       16.5052281820
  H         0.3492677604        9.4902777913       -1.3695166008
  H        -0.5733753073       10.9767383638       -1.4930508564
  H        -1.2760443163        9.5172024330       -2.1419965318
  S         5.8029012056       13.8734474786       -2.0529936906
  C         5.3629554716       16.4935895339       -2.6949212518
  H        -3.1440971662       12.7928687174        8.9943224833
  H        -4.0501670479       12.1587624943       10.3119367902
  C        -4.8497848904       13.9458433413        9.4060534074
  H         6.1014555653       13.5299441548       12.9925974789
  H         5.5908668470       12.4731226101       14.3135489367
  C         6.4993969403       14.4062377473       14.9901630222
  S         0.2745579135        5.7638264477       15.1941198659
  N        -0.1229970691        6.1553127251       16.7015427135
  C        -0.4860672875        8.2587293109       17.9408810000
  H        -0.7596693565       10.3385811573       18.6587080162
  C         5.7701809183       14.5336913347       -3.6612714155
  N         5.6705750033       15.8813195462       -3.8066955738
  O         5.3066297070       17.6723931699       -2.4575137674
  H        -5.2271432156       14.4434604828       10.2241609131
  H        -4.4114163800       14.6101345768        8.6901233907
  C        -5.9582832029       13.1018978387        8.9472707706
  H         5.8470407104       15.0018163475       15.5948795378
  H         6.9989755354       13.7316853669       15.6478274090
  C         7.5861310094       15.1844088390       14.2101470304
  C        -0.8841444962        7.5723273536       19.1510546738
  S         6.0566794377       13.5071473522       -5.0236871185
  C         5.5962263765       16.6049972046       -5.1146719026
  H        -5.6579145120       12.3928505402        8.0822582545
  H        -6.2594378141       12.3919189364        9.7311841318
  C        -7.1319206369       13.9062117235        8.5206954309
  H         7.2214547551       15.6613390951       13.2671799278
  H         8.3634131756       14.5198559135       13.8340926346
  C         8.4989060960       16.0827884444       15.0062131281
  H        -0.6530877657        6.5239070721       19.0914088403
  C        -1.3949476907        7.8140020748       20.3668428541
  H         6.1878114796       16.3684914241       -6.0256350440
  H         5.9485681102       17.6237086745       -4.8646396623
  C         4.2196123211       16.6392789989       -5.6348139979
  H        -7.7574581321       13.4205685167        7.7187232638
  H        -6.7021481670       14.7996012957        8.0551354402
  C        -7.9596079242       14.3216840072        9.7823580115
  H         8.3562536913       15.8543176701       16.1191098933
  H         9.5142917476       15.9827365452       14.6873624918
  C         8.3281973347       17.5967190836       14.8259456721
  S        -2.0401483736        9.2745600498       20.8432501529
  C        -1.5095780945        6.7201030129       21.3252530501
  H         3.4547672351       16.3789902150       -4.9466598783
  H         4.1443289776       16.0022562526       -6.5450519404
  H         3.9793253653       17.6477189388       -5.8907560011
  H        -8.1763146313       13.3860671060       10.2987533915
  H        -7.4217615750       15.0549842122       10.4270692221
  H        -8.8869183879       14.6531979931        9.4967950770
  H         7.4122412753       17.9046431057       15.2817495282
  H         9.1277150948       18.1783346119       15.2664488270
  H         8.3850931852       17.8378364295       13.6859622921
  C        -2.3035158884        8.4749793874       22.3874208183
  N        -2.0755045107        7.1657465569       22.4322888744
  O        -1.0684878596        5.6110032820       21.2181632744
  S        -2.9225348400        9.2677835302       23.8389267597
  C        -2.0892473485        6.3754905956       23.6214274625
  H        -2.1217086112        5.3425961419       23.3663937927
  H        -2.9326859933        6.6840100391       24.2355268720
  C        -0.7093323502        6.4666165286       24.3542085443
  H        -0.0042249944        5.8944798017       23.7990706539
  H        -0.8688696217        6.0921874591       25.4567857711
  H        -0.4251964108        7.5094783969       24.4354240442
