352
i =
  H        -4.1766351035       14.4196029348       16.5078178918
  C        -3.4515328108       13.5198168952       16.4839196501
  H        -3.9980975023       12.6939715176       16.8935830324
  C        -2.1729859374       13.6785488767       17.3790224960
  C        -3.1351736062       13.1421213956       15.0174122677
  C        -2.5501964340       14.1614765685       18.7454355261
  H        -1.6067459051       12.7542168044       17.3819530206
  H        -1.5505484162       14.4582527150       16.8312216504
  H        -3.6301755496       13.7528910002       14.2446143243
  H        -2.0893699486       13.1901938821       14.8714990857
  H        -3.3364830445       12.0542870031       14.9438454367
  C        -2.3575674603       13.0615900739       19.8269883461
  H        -3.5534591590       14.5661367458       18.6910732649
  H        -1.9535824851       15.0932137002       18.8332942784
  C        -2.2961230001       13.5405240085       21.3213753039
  H        -3.1545934906       12.3343674636       19.6849167560
  H        -1.4643347046       12.5113163388       19.5594926216
  C        -1.2356233231       12.8017919039       22.1842047568
  H        -3.3201582746       13.3786670072       21.6421382156
  H        -2.1901217971       14.5900873680       21.4113578692
  C         0.0375654380       13.5661757828       22.4077967474
  H        -1.5156377683       12.4301772710       23.1871082052
  H        -1.0256371097       11.9457972528       21.5754068685
  C         1.1845745428       12.6961800913       23.0978387729
  H         0.3551161352       14.0534169964       21.4841071929
  H        -0.1427829973       14.4111844895       23.0876039261
  C         1.4495997777       11.3986233932       22.3831313602
  C         0.7032116797       11.9664023990       24.3798322738
  C         2.4007114916       13.5769414570       23.2396947457
  C         1.2919888759       10.2741868640       23.1666779018
  C         1.8056260282       11.0923696703       21.0820416025
  C         0.7776690575       10.6124965565       24.3578960695
  C         0.2150954919       12.4851782799       25.5154968508
  H         2.6472721695       14.0514749051       22.2860764296
  H         2.1496594571       14.4258810448       23.9121751706
  C         3.6496440466       12.9040168350       23.8461005007
  S         1.7216669632        8.8359840698       22.3353083605
  C         2.0712876502        9.7806175100       20.9236059733
  H         1.9722984546       11.8844905169       20.3435646208
  C         0.3878518242        9.9006119358       25.4888449959
  H        -0.1288474642       13.5140477132       25.5590263184
  C        -0.1946259406       11.8667667875       26.6545293416
  H         3.9785044947       12.0278431174       23.2154731513
  H         3.4536623775       12.4416276582       24.8262312102
  C         4.8250242441       13.9522876868       24.0776128019
  C         2.3584392904        9.1792896866       19.6252680100
  C         0.0072908854       10.5107933675       26.6794633588
  H         0.3572173457        8.8342975924       25.4179812547
  C        -0.6719075185       12.1977324794       27.9030731908
  H         5.5926403674       13.4789757057       24.6648405395
  H         4.5501503533       14.8405987593       24.6982937600
  C         5.5274502797       14.2971472540       22.8245803889
  C         2.3550130669        7.7560738379       19.3344233466
  C         2.8878893143       10.0342201055       18.5320435683
  C        -0.4682323535        9.7780344893       27.9283447841
  C        -0.7105272750       11.0777356055       28.6920511528
  S        -0.9657769846       13.6800351482       28.7121819781
  H         6.3674548303       14.9390925932       23.0615030681
  H         4.8992410620       14.9199465016       22.1473421847
  C         6.1254515280       13.1272563432       21.9314985508
  N         2.1863563689        6.7748598827       20.3002340442
  C         2.7381581072        7.2737924908       18.0806878262
  C         3.1549003878        9.5235853941       17.2649181913
  H         3.0982142217       11.0336187645       18.7310418499
  C         0.6805035222        8.8979443212       28.6098230815
  C        -1.7401236422        8.8873557012       27.7307587867
  C        -0.9694600314       11.4543654653       30.0997508279
  C        -1.1125794948       12.8298556281       30.2230999374
  H         7.0643137341       13.5411356672       21.6419799962
  H         6.4441634473       12.2245558055       22.5142268207
  C         5.3200521854       12.7616740683       20.6793209771
  S         2.4412366497        5.3384659406       19.5297302913
  N         2.7035321310        5.8639470951       18.0546343025
  C         2.9755297871        8.1218318436       16.9717351256
  H         3.7379400494       10.1360161106       16.5459398442
  H         1.0760324811        8.1074008736       28.0354709655
  H         0.2945764626        8.1869143659       29.3108627600
  C         1.8548011356        9.7673463968       29.1002253209
  H        -1.4831247624        8.1137708132       26.9573821637
  H        -1.8804229686        8.3329200893       28.6767587746
  C        -3.0282962131        9.6993626316       27.4428705893
  H        -1.1668189462       10.6110836824       30.7451964453
  C        -1.3707186827       13.5160364877       31.5432233358
  H         4.3259706437       12.4815999148       21.0693318242
  H         5.5703106189       11.6935053800       20.3489771266
  C         5.2569762592       13.6908228213       19.4778072509
  C         3.3246728742        7.5645257819       15.6855385589
  H         2.1316283475       10.3281080336       28.1720967370
  H         1.5632849215       10.4327904110       29.8543519285
  C         3.0189663402        8.8643877085       29.6033255481
  H        -2.9108433553       10.5349916053       26.7249218352
  H        -3.1862535186       10.2342711959       28.4009258543
  C        -4.2772577515        8.8627311993       27.0781623029
  C        -1.4846856702       14.9574516030       31.6685284530
  C        -1.6403928002       12.7173287717       32.7859018459
  H         4.3973541461       13.5422219279       18.9297946254
  H         5.0685542022       14.7510732335       19.7659627145
  C         6.5374236623       13.6045470474       18.6436296356
  H         3.3606213603        6.5160349924       15.7059041601
  C         3.6952923715        8.1375783757       14.4786119161
  H         3.4835991881        8.2542713795       28.8296573324
  H         2.6538847097        8.0622057721       30.2210631450
  C         4.1194922668        9.5925643170       30.3470409222
  H        -4.0128652073        8.2416470519       26.2362240820
  H        -4.5506097734        8.2037591228       27.8415961698
  C        -5.4122247001        9.8271662950       26.6747794009
  N        -1.1445694358       15.8447612761       30.6340891635
  C        -1.7211215590       15.6015540459       32.8988685843
  C        -1.8952746741       13.3610359556       34.0120846257
  H        -1.5599370790       11.6339704132       32.7111086090
  H         6.9980696434       12.6181072631       18.6720448993
  H         6.2307283831       13.9275369011       17.6492192967
  H         7.1949822258       14.2778662124       19.1251487556
  S         3.8250120677        9.7061958846       13.9070766137
  C         3.8151262506        7.1289388652       13.3749427492
  H         4.1354054223       10.6967088143       30.0000535636
  H         3.8177200504        9.7039016653       31.3888117027
  C         5.5085656959        9.1161326172       30.2398903722
  H        -4.9483909051       10.5750874985       26.0643771144
  H        -5.7992417630       10.2184432736       27.6537332072
  C        -6.5175177335        9.2609027342       25.8401493710
  S        -1.2863463509       17.3572245829       31.1979350440
  N        -1.7136192748       16.9897293736       32.7506564888
  C        -1.9341962575       14.8848929840       34.1193058013
  H        -2.0998475221       12.7593723820       34.9180293095
  C         4.3629079912        9.0009431399       12.3303562205
  N         4.2563449277        7.6575481469       12.2218279096
  O         3.5657297343        5.9642594804       13.4820573967
  H         6.1362982344        9.8786668770       30.6696223760
  H         5.8578077131        8.8118028153       29.1700056971
  C         5.7379261291        7.7887153940       31.0248939364
  H        -6.0322386767        8.7787604166       24.9840194158
  H        -6.9515798675        8.4865372456       26.4231459329
  C        -7.4945009550       10.2140187298       25.2444858459
  C        -2.1857116224       15.6894443594       35.3124553362
  S         4.6557336453       10.0416151657       10.8561369417
  C         4.3140126619        6.9503770411       10.9512263841
  H         6.2546075831        8.0620855898       31.8739148619
  H         4.7364355875        7.4111654233       31.2880363005
  C         6.5425563361        6.8214823152       30.1258873432
  H        -7.0851398542       10.4735518304       24.2876799759
  H        -7.4616844679       11.1866837347       25.7516272840
  C        -8.8798874242        9.5670844548       25.2253403907
  H        -1.8822884232       16.7527046670       35.3429847530
  C        -2.7452994045       15.3338558287       36.5196646691
  H         5.1045240509        7.3330215294       10.3472447036
  H         4.6541705352        5.9094021901       11.0712250620
  C         2.9840147443        6.8588369727       10.2373182767
  H         7.4093680738        7.3435703694       29.6934651419
  H         5.8589583142        6.3304931836       29.4048808513
  C         7.1901316360        5.7775499436       30.9915160598
  H        -9.5089615457       10.2169206094       24.6302204726
  H        -8.7867250502        8.6586247063       24.5989680377
  C        -9.6334799327        9.3116311062       26.5510798690
  S        -3.4305345232       13.8157914272       36.9198312632
  C        -2.9153159011       16.3541087569       37.5211031346
  H         2.2757967381        6.1166704425       10.7054737127
  H         2.3756127081        7.7733340566       10.2421376825
  H         3.1051812889        6.6766741204        9.1505785081
  H         6.6270625051        4.8552520813       31.0471360179
  H         7.3636849369        6.1311978141       32.0205855874
  H         8.1989167377        5.5947551812       30.7025944817
  H       -10.6304525813        8.8813362559       26.4503137074
  H        -9.8560298278       10.2613036248       27.0328991591
  H        -8.9281849849        8.8170923604       27.2597948481
  C        -3.7536016535       14.4640057067       38.5033382753
  N        -3.5353137651       15.8208194479       38.5788420579
  O        -2.6217959952       17.5474933583       37.3428490296
  S        -4.6843306450       13.6069064133       39.7644868467
  C        -3.8353266973       16.6007701500       39.6956468584
  H        -3.9505212583       17.6380748756       39.3664795217
  H        -4.7840019783       16.3555510876       40.1866197531
  C        -2.6338424833       16.5398065602       40.7396907322
  H        -1.7079993736       16.9545408092       40.3810287863
  H        -2.8539041685       17.1738796368       41.6383528972
  H        -2.4762019412       15.5616569734       41.0948790660
  H         7.2414713431       10.3339917571        3.1821977111
  C         7.9778135623        9.6162620908        3.5744343201
  H         7.5029059911        8.6614740961        3.7775250744
  C         8.7501497463       10.0352656621        4.8439891412
  C         8.9413988617        9.3848010168        2.4822849279
  C         7.9660881408       10.3709972620        6.0250123312
  H         9.3333651882        9.1517313814        5.1037343239
  H         9.3911400300       10.8349887913        4.6105436415
  H         9.8893605604        8.9224165441        2.9406979871
  H         8.9508400938       10.3763909492        2.0350624180
  H         8.5926360126        8.6136477893        1.8102562802
  C         7.1473032932        9.1938951227        6.6473590696
  H         8.5255153302       10.8382344976        6.8326067835
  H         7.2180316311       11.1318998142        5.7072722618
  C         6.3392910186        9.7584623506        7.7854354923
  H         7.9783388236        8.5612440386        7.1042217179
  H         6.6532584631        8.5260143477        5.9313233025
  C         5.2003482215       10.6524208058        7.4226222883
  H         7.0415942577       10.3372367457        8.3743516483
  H         6.0769001711        8.9479592438        8.4007199310
  C         3.9800693265        9.9517589358        6.8312042340
  H         4.8720618530       11.1447983152        8.3711441612
  H         5.4887610934       11.4201414526        6.7563034994
  C         2.6772465103       10.8003218403        6.8625446210
  H         3.7747153933        9.0303921998        7.3648639674
  H         4.2291074512        9.6153251178        5.7879937912
  C         3.0432034506       12.1106677220        6.2456519101
  C         2.2923169887       11.4382713448        8.1445882567
  C         1.5449500488       10.1007604660        6.1228339501
  C         2.9178151553       13.1734061082        7.0875852038
  C         3.6069287920       12.5368485688        5.0256166576
  C         2.4228117050       12.7406172696        8.3208322206
  C         1.7276391675       10.7887782707        9.2480358702
  H         1.9197621491        9.3026666592        5.5186532604
  H         0.8677539297        9.6219471496        6.8709352712
  C         0.6674215980       10.9017550949        5.1614401459
  S         3.1938357342       14.6910206933        6.4191185258
  C         3.7347506743       13.9226732787        4.9447007132
  H         3.8772626272       11.7640654027        4.2926948516
  C         2.1524049961       13.3427246027        9.5319350372
  H         1.5803381623        9.6739176490        9.1605870031
  C         1.4853264565       11.3549239447       10.4745173422
  H         1.1842001337       11.4943962080        4.4257715669
  H         0.1294498217       11.6457591296        5.7626148986
  C        -0.3439146582       10.1354377015        4.3364567505
  C         4.1687423564       14.6760222391        3.7255078902
  C         1.6428064058       12.7143765029       10.6967238312
  H         2.2861494977       14.4501203005        9.5464628548
  C         1.0883307422       10.9352736742       11.7041021937
  H        -1.0338118118        9.7497105951        5.0131209569
  H         0.1430543311        9.3532824485        3.8776888253
  C        -1.0656338130       11.1070653095        3.3823762796
  C         4.1694578821       16.0755438617        3.5227375468
  C         4.6448753941       13.9335715218        2.4836705625
  C         1.1908210480       13.3572347477       11.9611952508
  C         0.8663316884       12.0119814838       12.5777353450
  S         0.7971734318        9.3974851341       12.3795648635
  H        -0.3009024793       11.7072746710        2.8001726300
  H        -1.6993875635       11.8435079746        3.9140842040
  C        -2.0085908913       10.3931730298        2.3987935787
  N         3.6967089716       17.0206447319        4.4200590868
  C         4.4449659849       16.6724881974        2.2988856157
  C         5.0080972891       14.5622724270        1.3448875375
  H         4.8795822157       12.9042325401        2.5729441660
  C        -0.0116520615       14.3024856882       11.8407988128
  C         2.3432701374       14.0165132033       12.7196186511
  C         0.4834783265       11.5248113916       13.8023309042
  C         0.3564010278       10.1615947183       13.8870989381
  H        -2.5291511105        9.6607139190        2.9965466416
  H        -2.6454566291       11.1161445527        1.8255332163
  C        -1.2794238282        9.5515865448        1.2974342963
  S         3.9196856989       18.4959263629        3.7760391064
  N         4.3948969570       18.0701740681        2.2998578123
  C         4.8857495053       15.9852184000        1.2143201714
  H         5.4322278486       13.9835016343        0.5549613074
  H        -0.0178227534       15.3515810448       11.5130730397
  H        -0.2843412932       14.2959668774       12.9030442259
  C        -1.2065618126       13.6579936954       11.0756423975
  H         2.6555758608       14.9136622687       12.2430536223
  H         1.9488676762       14.3631118694       13.6983818239
  C         3.5396163679       13.2190196090       13.1447409468
  H         0.3408489966       12.2100623948       14.6184572450
  C         0.0970839455        9.3922573200       15.1220569979
  H        -1.9911425819        8.8150958909        0.9018837482
  H        -0.5708950524        8.7752942016        1.7193980449
  C        -0.5769209513       10.2996591845        0.2069814398
  C         5.2203552061       16.6043420653       -0.0331463399
  H        -0.9560058375       13.3761132487       10.0057299854
  H        -1.4904524102       12.7218172668       11.5892279669
  C        -2.4776277781       14.5147586309       11.0066792914
  H         3.9628525886       12.7701218448       12.2218614747
  H         3.1303242942       12.4352466224       13.8722092180
  C         4.6843594338       14.1353073134       13.7195177284
  C         0.0802570599        8.0157270703       15.2826971033
  C        -0.1583406063       10.1813385487       16.3462354479
  H        -0.6387034944       11.3576700119        0.5327039945
  H         0.4670151406        9.9944190665        0.1285728511
  C        -1.1085724873       10.2451882044       -1.2028898322
  H         5.3134899226       17.6509048211        0.0170920772
  C         5.6270690824       16.1285154268       -1.2807726974
  H        -2.3634143609       15.3618573746       10.2617684933
  H        -2.6049541207       15.0893904594       11.9666957971
  C        -3.7063696563       13.6468132736       10.6770650323
  H         5.2701460118       14.5772286502       12.8559126375
  H         4.2944583725       15.0478847744       14.2278051283
  C         5.6340583064       13.3732648114       14.7100693093
  N         0.4556319884        7.1289987557       14.2649129036
  C        -0.2048117345        7.3560796678       16.4797730456
  C        -0.4932820638        9.5510045339       17.5077063759
  H        -0.2267979444       11.2089131391       16.3085354424
  H        -1.1600310401       11.3152948695       -1.5579822903
  H        -2.1638440471        9.9929946103       -1.1855514518
  H        -0.4683242711        9.7249026234       -1.8555071558
  S         5.8945543550       14.5425885520       -1.8908609312
  C         5.7303615108       17.1299040183       -2.3529631324
  H        -3.3901355245       12.7138033676       10.1768815997
  H        -4.1757525470       13.4211824109       11.6434568107
  C        -4.7054620533       14.3746255063        9.8275340418
  H         5.8737421105       12.3326761040       14.3741355510
  H         5.2191688335       13.3738813245       15.7139279659
  C         6.9408633296       14.0463642000       14.7457416384
  S         0.4860985125        5.6319897030       14.9471282336
  N        -0.0128346073        5.9974157745       16.4491752189
  C        -0.5559061142        8.0368779158       17.6944410244
  H        -0.5601088618       10.1694496563       18.3436827712
  C         5.9594060471       15.1852205359       -3.5175260451
  N         5.9002413191       16.5321129978       -3.5675918510
  O         5.5172301348       18.3394298939       -2.0756505313
  H        -5.3802579835       14.9703102001       10.4676657480
  H        -4.1149683948       15.0168463168        9.1384317986
  C        -5.6599084626       13.4022460935        9.0970451999
  H         7.6876819008       13.4075197264       15.3301209535
  H         7.4175171872       14.0531546813       13.7455770981
  C         6.8884003864       15.5132678412       15.2821345027
  C        -0.7944736461        7.2989779270       18.8335412823
  S         6.6451541738       14.3337653673       -4.9458526787
  C         6.0198840326       17.4374118927       -4.6967219218
  H        -5.1697683334       13.1642047010        8.1239614330
  H        -5.6871190516       12.5041453345        9.6632681463
  C        -7.0530605773       13.9582554485        8.8731734064
  H         6.7317271149       15.5782000492       16.3495688940
  H         5.8881388421       15.9271013388       14.9489381487
  C         8.0586706611       16.3564105118       14.8321464174
  H        -0.3832478813        6.2438590607       18.8064698335
  C        -1.2708667187        7.6637653325       20.1040165372
  H         6.6085422275       17.0382959947       -5.4909514912
  H         6.5754071553       18.2931207915       -4.3730957454
  C         4.6387628812       17.8317403793       -5.2499384910
  H        -7.4146676387       13.4368782318        8.0126136209
  H        -7.1547297068       15.0515243899        8.5636685885
  C        -7.9571644246       13.9020915165       10.0768792210
  H         9.0149868778       15.8452784966       15.0733511402
  H         8.0409994381       16.5465009220       13.7790220152
  C         8.1830760469       17.7579232368       15.4077044676
  S        -1.7779281572        9.2586105444       20.6517352469
  C        -1.2288936275        6.6294134306       21.1502654799
  H         4.7104983555       18.3181869611       -6.2451814261
  H         3.9892933624       18.3632389093       -4.5157631039
  H         4.0560536367       16.9022467468       -5.4326731753
  H        -7.8500848688       12.9659294955       10.6344983066
  H        -7.7374641014       14.6671723701       10.7818613447
  H        -9.0627688098       14.1146940747        9.8560475048
  H         8.9959479102       18.3402714003       14.8328894745
  H         7.2762625556       18.3412210067       15.2941618990
  H         8.5003020357       17.8328656203       16.4533773073
  C        -2.1025192063        8.5245937704       22.2273520375
  N        -1.8927870376        7.1680721317       22.2249005305
  O        -1.0076217911        5.4255263661       21.0735564511
  S        -2.8588244136        9.2712493771       23.6286758977
  C        -2.0816593332        6.2910788153       23.3748792645
  H        -2.2615951456        5.2721560732       23.0745918091
  H        -2.8766820123        6.6206325432       24.0379378376
  C        -0.8464758926        6.3505178946       24.3317842185
  H        -1.1116971120        6.5425113367       25.3243053697
  H        -0.1970814853        7.2323186459       24.1448234429
  H        -0.1803637341        5.4496794894       24.2379516322
