352
i =
  H        -2.7960955996       15.4042837306       16.3070960329
  C        -2.8208231273       14.3006084788       16.4651064069
  H        -3.7228936501       14.0153271109       16.9362294545
  C        -1.6081486600       13.8330061210       17.2991436135
  C        -2.8212366274       13.5437407628       15.0201710371
  C        -1.6434523921       14.3336469228       18.7279065378
  H        -1.6100572761       12.7338491014       17.3642393335
  H        -0.6891958108       14.1548105562       16.7958358938
  H        -3.6071751578       12.7571030650       14.9858363299
  H        -3.2085556907       14.1585029551       14.2233383176
  H        -1.8915665574       13.3541503484       14.5780658854
  C        -1.7103163229       13.1978777059       19.8265480284
  H        -2.4923119569       14.9427665176       18.7267790781
  H        -0.7830121156       14.9304194326       18.9230623935
  C        -2.1573326990       13.6017429962       21.2658411534
  H        -2.4433027184       12.3751754662       19.5673535245
  H        -0.7729226153       12.7235919013       19.8992443994
  C        -1.2921079205       13.0151885333       22.4215288571
  H        -3.1852870635       13.3704748867       21.4398753071
  H        -2.1256323261       14.6845983074       21.2167441236
  C        -0.0340715789       13.8348006329       22.7129916371
  H        -1.8186552880       12.8335368066       23.3382042639
  H        -1.1253451224       11.9900457766       22.1318811717
  C         1.1344695901       13.0475067363       23.4141909841
  H         0.3807044283       14.1385042588       21.8361047936
  H        -0.2976673102       14.6959435808       23.3461643136
  C         1.4998718358       11.6923553784       22.7511953006
  C         0.6135358314       12.4074454426       24.6907291686
  C         2.3734348008       13.9737150431       23.6749689581
  C         1.2619226252       10.6669270760       23.6324269820
  C         2.1764575848       11.2958556993       21.5367818889
  C         0.7033706515       11.0655955993       24.8399008286
  C         0.1781485073       13.0617378560       25.8350313488
  H         2.5397004612       14.4926889673       22.7298966095
  H         2.2811889007       14.7358288464       24.5291063489
  C         3.6342456323       13.2346023701       24.0248752319
  S         1.7670608246        9.1028143729       22.9666773009
  C         2.2936334167        9.9185074644       21.4688636739
  H         2.5759723531       12.0691168153       20.8690486115
  C         0.3161102949       10.4562995736       26.0033135118
  H         0.0828728037       14.1837001859       25.8361463832
  C        -0.2599042810       12.4725490364       26.9945837131
  H         3.8186914017       12.4015373061       23.2899427816
  H         3.4724726639       12.8635182803       25.0161293821
  C         4.8208000456       14.2315633445       24.0250257323
  C         2.7802213078        9.2352364204       20.1954806054
  C        -0.2081391322       11.1187778053       27.1149650476
  H         0.5305394794        9.4449449001       26.0146960547
  C        -0.7583110609       12.9122741305       28.2140436381
  H         5.7040668014       13.7914601031       24.4891454557
  H         4.6323000873       15.1963907363       24.5762208383
  C         5.3139712309       14.4406373150       22.5930884967
  C         2.6693667505        7.8982733837       19.9684238854
  C         3.1857516467       10.0821425801       19.1172396917
  C        -0.6753386930       10.4885309454       28.3204050474
  C        -1.0346324728       11.8306555875       28.9792224595
  S        -0.8686119884       14.4123598851       29.0852864455
  H         5.7979113442       15.4702442476       22.4578852544
  H         4.4640156476       14.4532703575       21.8911179616
  C         6.4015008173       13.4303358266       22.3160295340
  N         2.2548048308        6.9303069430       20.8911277057
  C         2.8376393399        7.4463373471       18.7238696774
  C         3.4130257861        9.6215591357       17.8558205483
  H         3.3115363360       11.1169274675       19.1880505559
  C         0.5050452214        9.7685273422       29.0068162213
  C        -1.9746435194        9.6916005348       28.1211140593
  C        -1.5479100489       12.1037748739       30.2726949136
  C        -1.5294080352       13.4915561363       30.4368679992
  H         7.4132464227       13.8238358934       22.4917631369
  H         6.1805994439       12.5753244088       22.9372017803
  C         6.3513162916       12.8520946205       20.9111358576
  S         2.1796235957        5.5729288089       20.0823328975
  N         2.6310593617        6.1207780742       18.6438406995
  C         3.1784703652        8.2109401187       17.5810803899
  H         3.8438211071       10.2778636816       17.0791062819
  H         1.1558351834        9.2047907825       28.3130095310
  H         0.0679802060        9.1774266880       29.7749796760
  C         1.5571114040       10.7151130007       29.5579118484
  H        -1.7668600152        9.0590537370       27.2105942941
  H        -2.1573283210        9.1476291709       29.0471540966
  C        -3.1947105913       10.5178623535       27.8072846084
  H        -1.7813589587       11.2958064795       30.9249216809
  C        -1.9330812765       14.2121383933       31.6953070972
  H         5.2881232249       12.4868699529       20.8121973872
  H         7.0829438428       12.0417981507       20.8997218928
  C         6.6788052215       13.8775166317       19.8316772776
  C         3.4319853163        7.5144769822       16.3364256144
  H         2.1275438425       11.2674484697       28.7996186534
  H         1.0892166983       11.3484307913       30.3224135704
  C         2.6603298023        9.9729357326       30.3178442276
  H        -3.0068852760       11.3674128087       27.0412522685
  H        -3.5663105644       10.9507678992       28.7599972632
  C        -4.3876901060        9.6872646995       27.3879895762
  C        -1.9921835123       15.6049766781       31.8911184012
  C        -2.1595312379       13.3421524298       32.8763535903
  H         6.0268993680       14.7059459973       20.0284285176
  H         7.6136438703       14.2555408219       20.0061382262
  C         6.4306486237       13.2044623073       18.5190439833
  H         3.2938135436        6.4788734994       16.3843631028
  C         3.7317858043        7.9241097606       15.0641322868
  H         2.5712147683        8.9358526089       30.1731936264
  H         2.4611281327       10.0690182485       31.3374261111
  C         4.0919975407       10.6064309551       30.2521344244
  H        -4.0100841975        9.0599646745       26.6186039519
  H        -4.6590854859        9.0587367090       28.1797739192
  C        -5.4761030067       10.5959375387       26.7904589670
  N        -1.7133703710       16.5673395406       30.9272063907
  C        -2.1550380799       16.1314491445       33.1250380930
  C        -2.4887349885       13.8700789035       34.0920699099
  H        -2.1358279275       12.2429464281       32.7455308794
  H         6.5798912388       13.9051339035       17.6708585912
  H         7.1373732915       12.3371146563       18.3854873479
  H         5.3647724296       12.9550957054       18.3649431619
  S         3.9416034207        9.5772552671       14.4661499655
  C         3.8438597963        6.8414057420       14.0506414917
  H         4.0927878550       11.2161479031       29.4124448584
  H         4.2152951187       11.3291356573       31.0986198788
  C         5.1817435372        9.5855989378       30.0697545797
  H        -4.9831799916       11.2830421101       26.1317272104
  H        -5.9091504565       11.1668133441       27.6604354390
  C        -6.5437631619        9.8765362715       26.0050158041
  S        -1.6606133083       18.0102091726       31.6385428261
  N        -2.2398437149       17.5082723650       33.1324971802
  C        -2.4695799211       15.3867134703       34.2686971167
  H        -2.6722522735       13.2224246722       34.8950959951
  C         4.2073830627        8.8614290863       12.8949323021
  N         4.1160512636        7.4821743611       12.8866596873
  O         3.6895087186        5.6359524737       14.2623413761
  H         6.1537629809       10.1083984972       29.9564948292
  H         5.0960332763        9.0979964140       29.0696016696
  C         5.3529634081        8.7156222975       31.2547003870
  H        -6.1003870034        9.1557657555       25.1864498595
  H        -7.0986568457        9.2398873560       26.7020743499
  C        -7.5319738010       10.8828547379       25.6113141180
  C        -2.7464453808       16.0940070387       35.5206387945
  S         4.3744132646        9.6208850989       11.2984200715
  C         4.2655526252        6.7017929451       11.6794063521
  H         5.5160470422        9.3198396131       32.1268694214
  H         4.4247726391        8.2174218689       31.4846324578
  C         6.3908127490        7.6055496589       31.2304081465
  H        -7.2209445704       11.5207390023       24.7864554473
  H        -7.7575383599       11.4820482248       26.5240865764
  C        -8.7408005984       10.1821557859       25.0437634740
  H        -2.5413069892       17.1816137155       35.4571005996
  C        -3.2317739327       15.7831012892       36.7770322652
  H         5.0008591073        7.1201347694       11.0516493328
  H         4.7197591155        5.7325728641       12.0232498258
  C         2.9466083160        6.4598848830       10.9691153672
  H         7.0776904709        8.0041380718       32.0005017398
  H         6.8493971342        7.5656829224       30.2241239296
  C         5.9683157765        6.2618094771       31.7544984694
  H        -8.9840689970       10.7163964541       24.1420779029
  H        -8.5444435133        9.2019857518       24.6028955989
  C        -9.8224136194       10.1570497503       26.0790361387
  S        -3.6791228692       14.2580767360       37.3236774711
  C        -3.2346107482       16.9129246738       37.8452523340
  H         2.6248534376        5.4730853374       11.0121019208
  H         2.2052421236        7.0722130523       11.5042626804
  H         2.8297376115        6.8051598750        9.8979675245
  H         6.8028225717        5.5743442440       31.5896070461
  H         5.1420748330        5.8711472736       31.1443422316
  H         5.6723726059        6.3812993137       32.8032006234
  H        -9.3943239581        9.6764752970       26.9821983823
  H       -10.6907319396        9.6116214603       25.7636283400
  H       -10.0404800116       11.1999789822       26.3213692781
  C        -3.9798952823       15.0416274514       38.9000526852
  N        -3.7302319608       16.4054358266       38.9796045248
  O        -3.1336358673       18.1005594486       37.6166553334
  S        -4.8719357658       14.2979256866       40.2398691689
  C        -3.8945555800       17.2921292098       40.1191063002
  H        -4.2188185142       18.3087651784       39.8625437417
  H        -4.5927952767       16.9003541081       40.8901220452
  C        -2.6253036537       17.3574599707       40.9302035323
  H        -2.7164441397       18.1324806501       41.7271489383
  H        -2.5644846306       16.4608409619       41.5727601769
  H        -1.6788368594       17.5315315164       40.3257449774
  H         7.2790986589       11.2144958282        3.6143179737
  C         7.8790650514       10.4299035927        3.7688712856
  H         7.1464971086        9.6483244939        3.8759158666
  C         8.7192407459       10.7472463977        4.9816115988
  C         8.8919212745       10.2262098820        2.6006485314
  C         8.0009848675       10.8822042933        6.3083953812
  H         9.6535582128       10.1558234082        4.9244162458
  H         9.1457249698       11.7179337279        4.7520702140
  H         9.5435703854       11.1185647347        2.5094885326
  H         8.2922575892       10.1213380391        1.6886003429
  H         9.5177892622        9.3333614472        2.7502273752
  C         7.5894542241        9.5524921453        6.8656057299
  H         8.5634431399       11.2223536928        7.0291189808
  H         7.1438819064       11.4779916414        6.0446181481
  C         6.7060040295        9.6527741659        8.1422327127
  H         8.4640163974        8.9522721134        7.0544998766
  H         6.9989752511        9.0391766561        6.0847010545
  C         5.4762692025       10.6022190760        8.0221566807
  H         7.3464070518       10.0518627976        8.8900503544
  H         6.5319751532        8.6529609915        8.4661057238
  C         4.3381879958        9.9613114239        7.3216403850
  H         5.1042299206       10.8049735291        9.0555676388
  H         5.7678089377       11.5295314758        7.5297596509
  C         3.0923525961       10.8745119567        7.2421691155
  H         4.1195888871        8.9631203437        7.6580842618
  H         4.7780804729        9.9300536658        6.3367740450
  C         3.3084032928       12.2287707731        6.5973564286
  C         2.6413833909       11.5492204519        8.5224158753
  C         1.9840093175       10.1796811487        6.4886783051
  C         2.9857034797       13.3046922578        7.4209268548
  C         3.8626443726       12.6222865177        5.3572754437
  C         2.5478227615       12.8876693893        8.6423553705
  C         2.1248177413       10.9502442339        9.6646424497
  H         2.2869701654        9.4684160773        5.7200915434
  H         1.5618685565        9.5508399804        7.2583591549
  C         0.7285326593       11.0285764778        6.0989445307
  S         3.3812758020       14.8415704415        6.6693368464
  C         3.8637694310       14.0012054788        5.2357209344
  H         4.1423377808       11.8717700245        4.6320756366
  C         2.1394548701       13.5023534328        9.7990474369
  H         2.0047873506        9.8848279872        9.7405970556
  C         1.7333791036       11.5343463529       10.8120010898
  H         1.0150040574       11.9173845703        5.5346658028
  H         0.3088845200       11.4856592908        6.9203402506
  C        -0.3315257423       10.2232308774        5.3437712217
  C         4.2040219932       14.7665625680        3.9736317624
  C         1.7870960784       12.8581392838       10.9432173898
  H         2.1231317422       14.5587166104        9.7850454307
  C         1.2054996248       11.1109557535       11.9820280846
  H        -1.1593425046       10.8390781429        5.1676274552
  H        -0.7676478731        9.2834254834        5.7703265856
  C         0.2085242427       10.0962798426        3.9210082847
  C         4.2722868101       16.1649501446        3.7789581330
  C         4.6322289398       13.9824466185        2.8011771615
  C         1.3655057453       13.4952283381       12.2048670618
  C         0.9808168151       12.1567840652       12.8304997035
  S         0.7367740243        9.6208741723       12.6925523812
  H         0.6445696029        9.1202740465        3.7452553387
  H         1.1477993801       10.6666362414        3.7601688490
  C        -0.9041723990       10.4360506247        2.8405413925
  N         3.9936662860       17.1137340300        4.7767631631
  C         4.5084762314       16.7670473908        2.5370597247
  C         4.9817754555       14.6175017239        1.6082054866
  H         4.5800372433       12.9377910734        2.8437906389
  C         0.0712854321       14.3099898131       12.1076677236
  C         2.5005475124       14.1716324577       12.9572487867
  C         0.4090548780       11.7845303290       14.1037079753
  C         0.3805933081       10.4268514917       14.1902898829
  H        -1.7253368933        9.7324767060        2.9749215832
  H        -1.3222144619       11.3409847932        2.9733634782
  C        -0.3508075354       10.3722275214        1.4901649580
  S         4.0272946559       18.6108745475        4.1596710784
  N         4.4689300822       18.1511423956        2.6800181170
  C         4.9038848327       16.0967643560        1.3673483654
  H         5.2110239515       13.9909916391        0.7831553249
  H         0.2560967195       15.2418863323       11.6411391024
  H        -0.3644974357       14.4260628810       13.1155177956
  C        -1.0703564026       13.7393827007       11.2763654725
  H         2.9189514583       14.9169518036       12.2605000026
  H         2.0364759065       14.7747202350       13.7477725799
  C         3.5337799554       13.2264964442       13.5758787088
  H         0.0628463889       12.5954111483       14.7797506040
  C         0.0816248558        9.6122382797       15.4530512445
  H         0.5580016562        9.7131230799        1.4697116411
  H         0.0655867452       11.3993037297        1.1434514120
  C        -1.5186689522       10.0089261664        0.5243996272
  C         5.1108720671       16.8976621320        0.2054844708
  H        -0.6400829667       13.5934790974       10.2513696989
  H        -1.6635222001       12.8295792317       11.5123279008
  C        -2.1704290750       14.7902615474       11.1061873711
  H         3.8438734958       12.6208515255       12.6741423714
  H         2.9733312457       12.5688266997       14.2934675168
  C         4.6512408041       13.9612641879       14.2217257095
  C         0.0888641457        8.1977825414       15.6259452564
  C         0.0404751322       10.4047303623       16.7146885286
  H        -1.8840181002        9.0006740763        0.6084086819
  H        -2.3387976384       10.6349571161        0.8151273794
  C        -1.1167979276       10.3242252460       -0.8398562704
  H         5.1856808443       17.9961487638        0.3316721817
  C         5.1562656056       16.4394140496       -1.0969386667
  H        -1.6936480290       15.7068016833       10.7026582312
  H        -2.7034550409       15.1629243243       12.0055506870
  C        -3.2852158749       14.2793313465       10.1988635214
  H         4.8024522949       14.9692736927       13.7567676367
  H         4.5257979735       14.0273205832       15.3237966145
  C         6.0422018700       13.2331350169       14.2322121780
  N         0.2641441602        7.2111034841       14.5983468110
  C        -0.0903466578        7.6611311604       16.8709750142
  C        -0.1511112328        9.8048555035       17.9777458389
  H        -0.1167876031       11.4461976634       16.6128617165
  H        -1.7732938700        9.8548219506       -1.5411846728
  H        -0.0910410786       10.0336728327       -1.0302496976
  H        -1.1640117196       11.3707498318       -1.0111927677
  S         5.2643384966       14.8163051322       -1.6166173459
  C         5.2353396994       17.4444090474       -2.1589312207
  H        -3.5289671848       15.1041277163        9.4967304847
  H        -2.9975568362       13.5160030044        9.4839444257
  C        -4.6079320099       13.9851433535       10.7867657930
  H         6.2072569598       12.5677414488       13.4294783694
  H         5.9995695759       12.5078079627       15.0501073860
  C         7.3878256134       13.9822874772       14.4435929273
  S         0.2791151656        5.7336058914       15.2918347259
  N         0.0149541590        6.2328620633       16.8454111060
  C        -0.2551199881        8.3617973971       18.0423491251
  H        -0.3123988980       10.5386877067       18.7574651937
  C         5.4272669842       15.4877627398       -3.2214895690
  N         5.3542666984       16.8031386250       -3.3242771378
  O         5.1954510945       18.6115528307       -1.9820432368
  H        -4.5199909918       13.8713890706       11.8410010799
  H        -5.1671652444       14.9361350315       10.7100749863
  C        -5.3533734358       12.7970440998       10.1303710412
  H         7.5303532178       13.9209332276       15.5314048361
  H         8.2750805004       13.5046213374       13.9704925902
  C         7.4474505696       15.4480181141       14.0867221936
  C        -0.5641058046        7.6610259739       19.2691828657
  S         5.9434343172       14.5367818235       -4.5929616740
  C         5.3961043043       17.5328088178       -4.5851354971
  H        -4.7153422061       11.9492441216       10.0926090176
  H        -6.0953819231       12.3820868735       10.8252076865
  C        -6.0044258726       13.0998731537        8.7323774594
  H         6.7957030622       15.7257810831       13.2594588583
  H         8.4566884247       15.6182038374       13.6694014602
  C         7.0920843757       16.3376310408       15.2686149801
  H        -0.3999323647        6.6415128163       19.4096584820
  C        -1.2018235205        8.1044737549       20.4314325319
  H         6.2925127455       17.2969334924       -5.1871022846
  H         5.4866477731       18.5931334434       -4.2587601974
  C         4.0682014162       17.4047357828       -5.3286532656
  H        -5.8989455547       12.2185382613        8.0382424816
  H        -5.3711766818       13.9167566337        8.2409200899
  C        -7.4802813949       13.4758489793        8.8138557417
  H         6.0377728365       16.2073053524       15.5397585610
  H         7.7151047939       16.0014321428       16.1415484187
  C         7.2903235355       17.8188436752       15.0963015922
  S        -1.7935314159        9.6766965774       20.7763479021
  C        -1.2803368626        7.0993902389       21.5317967027
  H         4.0829973730       16.4861103666       -5.9928725153
  H         3.8403403206       18.2871930262       -5.8497678821
  H         3.2711102683       17.3541087529       -4.6235688057
  H        -8.1772718663       12.6901447773        9.1960123428
  H        -7.5012374256       14.3807642234        9.3866538012
  H        -7.7687074974       13.6667446204        7.7723261975
  H         8.1043433373       18.0983143265       14.4673849093
  H         6.3459883868       18.2253350313       14.6479885562
  H         7.4269134301       18.2957794124       16.0247555896
  C        -1.9774727890        9.0047265843       22.3757059301
  N        -1.8900346268        7.6878538452       22.5673341805
  O        -0.8429163187        5.9307712313       21.4846301607
  S        -2.6280051779        9.9437673914       23.6736205192
  C        -2.2187543453        6.9102064054       23.7497525922
  H        -2.2598311790        5.8887766001       23.4769496195
  H        -3.2275543756        7.1532036214       24.0149685437
  C        -1.0796665759        7.1130756738       24.7985636781
  H        -0.2919725794        7.7002466611       24.4306737732
  H        -0.8070963192        6.1768176773       25.2021378305
  H        -1.3434181170        7.6446636839       25.6231814773
