352
i =
  H        -4.2378766977       13.6984011535       16.0806790917
  C        -3.3764699010       13.1035753663       15.8440124927
  H        -3.8694681832       12.1350697168       15.8178010597
  C        -2.2829307743       13.1996216509       16.9210729074
  C        -2.8803819875       13.3627270114       14.4182553317
  C        -2.5422362335       13.8164379383       18.3221376459
  H        -1.8656504969       12.2444650155       17.0986378049
  H        -1.5100004457       13.8108733366       16.4787049389
  H        -3.1130037322       14.2800794086       14.0179249367
  H        -1.8170336959       13.3645995382       14.3797096276
  H        -3.2793334617       12.6662320503       13.6622783391
  C        -1.6464271433       13.3236370562       19.4151414290
  H        -3.5641979134       13.6764709328       18.6156555373
  H        -2.4866414824       14.9092526988       18.2304780959
  C        -2.1909489180       13.4265433063       20.8301261742
  H        -1.6172303253       12.2079966883       19.1774227956
  H        -0.6186461904       13.8004339763       19.3537705185
  C        -1.3171436497       12.8141975742       21.8563949378
  H        -3.1326763428       12.9138748812       20.7694918485
  H        -2.4902913395       14.4508461027       21.0568767371
  C        -0.1896970718       13.7631576567       22.2769467918
  H        -1.8788773019       12.4107586771       22.6493856936
  H        -0.8838306232       11.9455378660       21.5274254580
  C         0.9479069395       13.0253465827       23.0915541038
  H         0.1727315376       14.1455908457       21.3079488530
  H        -0.5745167447       14.5816517556       22.8416443329
  C         1.4017571828       11.7083100525       22.4040971936
  C         0.6121582108       12.2757115887       24.3431167666
  C         2.1502048680       13.9999654060       23.3489344693
  C         1.2753719445       10.5853109118       23.1793522556
  C         1.8806316579       11.3880966926       21.1416914050
  C         0.8566100190       10.8864328014       24.4244409037
  C         0.1654931635       12.7984458878       25.5533777261
  H         2.2951994549       14.5866956849       22.4261684009
  H         1.8437350581       14.8460462097       23.9996833538
  C         3.3940352386       13.2825368488       23.8951418068
  S         1.5750204042        9.1034190778       22.4259188871
  C         2.0352740267       10.0415630264       20.9360057324
  H         1.9963566901       12.1846854877       20.3953440689
  C         0.6774277436       10.2181770989       25.5870270470
  H        -0.1129251757       13.8640381942       25.4150529517
  C        -0.0243639919       12.1292391987       26.7521353217
  H         3.8242482332       12.4920765554       23.2715118987
  H         3.0897304670       12.6828388029       24.7889412307
  C         4.5248254062       14.3161909905       24.2905615500
  C         2.4444753597        9.4040324405       19.6670709533
  C         0.1860423598       10.7835404728       26.7703035073
  H         0.8349102106        9.1246511929       25.5901067319
  C        -0.4414776506       12.4843697205       27.9876728903
  H         5.4077540548       13.7764016384       24.7691417131
  H         4.2773271213       15.0856360499       24.9892633721
  C         5.1285146670       14.9901193704       23.0422939081
  C         2.4357396701        7.9794727624       19.4969782854
  C         2.8415779222       10.2338863136       18.4424125068
  C        -0.1177265184       10.0556681048       28.0579058196
  C        -0.5071991283       11.3912490777       28.7964661275
  S        -0.8969103566       13.9746568586       28.7331609651
  H         5.6925597931       15.8909429605       23.3689232141
  H         4.3731560116       15.3854215192       22.3773555975
  C         6.1486597376       14.0982393012       22.3138715294
  N         2.0735139110        7.0577966093       20.4419841168
  C         2.7566010055        7.4521495267       18.2555346353
  C         2.9951992381        9.6483420754       17.1861802332
  H         2.9497462855       11.3185888797       18.5434127942
  C         1.0261817045        9.4721709018       28.8445687197
  C        -1.3970508933        9.1012223952       27.8299628776
  C        -0.9478162996       11.7582518703       30.0572886881
  C        -1.0734434479       13.1483712795       30.2239252199
  H         6.7886576019       14.8009962281       21.9245280697
  H         6.8269318322       13.5748296242       23.0280676229
  C         5.6659243367       13.2076477774       21.2292254669
  S         2.1615669064        5.5721824976       19.8032471060
  N         2.5587265705        6.0778995657       18.2670978521
  C         3.0112429461        8.1756925954       17.0669050660
  H         3.1768824488       10.2589744034       16.3403997800
  H         1.5146150961        8.7213959343       28.2316455010
  H         0.6259913453        8.8632345764       29.6652045297
  C         1.9893917508       10.5301992950       29.3070051197
  H        -1.1352529844        8.3913943398       27.0413802375
  H        -1.6879004602        8.5791616885       28.7232590983
  C        -2.6329341284        9.8684075824       27.3089111716
  H        -0.8797147431       11.0411465170       30.8592540109
  C        -1.6085011024       13.8473172926       31.4027426380
  H         4.6293796887       13.0861625696       21.3176110895
  H         5.9141225701       12.1836273717       21.3186666137
  C         6.1409189524       13.6905707969       19.8225960406
  C         3.2991087791        7.3840907252       15.8861651829
  H         2.1256341183       11.3724920771       28.6559969076
  H         1.5906034408       10.8980951796       30.2611494468
  C         3.3343343073        9.9375761068       29.8151225738
  H        -2.3041663898       10.2517074021       26.3155667537
  H        -2.8116055807       10.7216067553       27.9673466292
  C        -3.9071944879        9.1257967854       26.9356173367
  C        -1.6974803954       15.2253638717       31.6175183414
  C        -1.7879725791       13.0134993227       32.6006939596
  H         5.5689147591       13.1372717117       19.1633859484
  H         5.9906209453       14.7434821609       19.6713715403
  C         7.6017963564       13.2840743500       19.5382837921
  H         3.3933967133        6.3212340670       16.0331411593
  C         3.5835338634        7.7549744905       14.6302133195
  H         4.0073237561        9.8095002932       29.0129626553
  H         3.0647430737        8.9684003973       30.1986989999
  C         4.1570260232       10.7534130100       30.8508354573
  H        -3.7439134688        8.5433929722       26.0471045175
  H        -4.1498694119        8.2797794628       27.5703129460
  C        -5.0611971721       10.0539398689       26.8243450420
  N        -1.4629911381       16.1981108227       30.6713851613
  C        -2.0040209906       15.8262318130       32.8137369368
  C        -2.0225890776       13.5895322115       33.8147316221
  H        -1.8458030884       11.9818033661       32.4835951166
  H         8.1502334766       13.0261155686       20.4212061340
  H         7.5987678934       12.4241687218       18.8639288290
  H         8.0694270342       14.1653688381       19.1082391259
  S         3.9435781390        9.3411262952       14.0626381339
  C         3.4901194836        6.6920981396       13.5398240342
  H         4.1312343807       11.7462922426       30.5466017037
  H         3.6520491319       10.6302924869       31.8591824114
  C         5.5771957511       10.3269355195       31.0686028084
  H        -4.7302560788       10.9643510744       26.2521651889
  H        -5.5328563505       10.3111248009       27.7946199363
  C        -6.2446176851        9.3647295205       26.0443930790
  S        -1.7778655854       17.6832617706       31.2447513791
  N        -2.1851754187       17.2250109795       32.7646289865
  C        -2.1122047711       15.0529716286       33.9547129313
  H        -2.1642546150       12.9192424799       34.6180578176
  C         4.0397478619        8.6324637197       12.4602315447
  N         3.7908355056        7.3285238504       12.3566992481
  O         3.0734456964        5.5135245017       13.6984163554
  H         6.1716432344       10.8349209603       31.8494173562
  H         5.9991843313       10.5236465608       30.0714542374
  C         5.8080742711        8.8726080755       31.4452309202
  H        -5.8627499108        8.7370717015       25.2270280360
  H        -6.7161901413        8.6324110142       26.6070090960
  C        -7.1334637051       10.3066485128       25.3378258916
  C        -2.5705520317       15.7753009090       35.1134572653
  S         4.1767843395        9.4087210307       10.9882143769
  C         3.7269752403        6.4869068020       11.1368170116
  H         6.6975947542        8.8256988462       32.0514729122
  H         4.9490609897        8.4174478331       31.8990577013
  C         6.1123530225        7.9966467355       30.2552481957
  H        -6.6560904561       10.7093700522       24.5151360514
  H        -7.3206894867       11.1836179286       25.9558654907
  C        -8.4985555297        9.7606661927       24.9058561062
  H        -2.3515976413       16.7924825550       35.1480441380
  C        -3.0675310209       15.3672190170       36.2669187825
  H         4.1545144097        7.0028995608       10.2425027750
  H         4.2773018409        5.5718615625       11.2674633203
  C         2.2615494685        6.2848451402       10.7751903538
  H         7.1585392200        8.1877539046       29.9211275643
  H         5.5503943525        8.2063906516       29.3780582645
  C         6.1152491210        6.4802794595       30.5670390175
  H        -9.0232463630       10.4706542789       24.3030795759
  H        -8.4386709517        8.7999232364       24.4167988384
  C        -9.4792003932        9.5163236128       26.1147992376
  S        -3.5596111178       13.7552489956       36.7157131119
  C        -3.1408520763       16.3072422634       37.3699149318
  H         1.9386310924        6.9450060929        9.9042539985
  H         2.1082511758        5.2322630357       10.6002419590
  H         1.6123881289        6.6656808871       11.5530434152
  H         6.3433128733        6.3566289033       31.6200550744
  H         6.7500367890        5.8442696417       29.9195049095
  H         5.0759238200        6.1996421265       30.4509723479
  H        -9.2615894290        8.7550275721       26.8824146014
  H       -10.5106577620        9.2263789403       25.8037264643
  H        -9.5909474749       10.4443210665       26.6882536639
  C        -4.1552672716       14.5116561473       38.2417947090
  N        -3.8593091197       15.8124946732       38.4402040794
  O        -2.6978224389       17.4378719982       37.3802277334
  S        -5.0456975952       13.7279255362       39.5597217824
  C        -4.0393650659       16.6441139287       39.6767720173
  H        -4.2500988092       17.6487244010       39.4664508115
  H        -4.9842025394       16.3668352045       40.1102307775
  C        -2.8325020869       16.4159213571       40.6193173757
  H        -2.3351967601       15.5356932270       40.1614708791
  H        -2.1577376873       17.2934619108       40.6438213966
  H        -3.1157244362       16.2398406022       41.6358629676
  H         7.2455513954       11.8384483979        3.1200943467
  C         7.3649058526       10.7076533104        2.9644389333
  H         6.3780720737       10.2032890697        3.1536505899
  C         8.4015156523       10.3296722110        4.0723944141
  C         7.9402921998       10.3223113608        1.6208876697
  C         7.7259080626       10.4124464660        5.4935311888
  H         8.7771575139        9.3385864165        4.0590977192
  H         9.2436210265       10.9807957770        3.9788387704
  H         8.5585157275       11.0840872562        1.2535413103
  H         7.1845099864       10.2041018666        0.8768816144
  H         8.4488389292        9.3306885523        1.6083566211
  C         6.9590951048        9.1709468140        6.0453175057
  H         8.4958852849       10.5418230817        6.2085860278
  H         7.0354717477       11.3075413059        5.5699479005
  C         6.5118177198        9.2900390143        7.5110330517
  H         7.6263028114        8.2955366755        5.9537111884
  H         6.1403720998        8.9188078147        5.4117432033
  C         5.2736121898       10.2112033640        7.5864987854
  H         7.2561629139        9.6820863069        8.1417772291
  H         6.2878314423        8.2514727046        7.7925086895
  C         4.0208001734        9.5204245157        7.0329272340
  H         5.0345034541       10.5905499610        8.5818677191
  H         5.5458102567       11.1388203511        7.1090991308
  C         2.7842867817       10.4824299129        6.8988873039
  H         3.7767662308        8.6793922480        7.7130560303
  H         4.1924217121        8.8961825964        6.1421078175
  C         3.2020688692       11.8208535145        6.3017552207
  C         2.4095306752       11.2211950145        8.2073438711
  C         1.5955028554        9.8458844908        6.1647037542
  C         2.8491022399       12.9439635891        7.0455036474
  C         3.7049327217       12.2119248209        5.0452017207
  C         2.3783122993       12.5654739298        8.2840735266
  C         1.7805010226       10.6292655847        9.3423010105
  H         1.9674498053        9.3684889843        5.3141493632
  H         1.2814373196        9.0980996687        6.8810427662
  C         0.5009272579       10.8286909868        5.8345468925
  S         3.2131825501       14.4457641000        6.3105697124
  C         3.7576351392       13.5914238221        4.8886548280
  H         4.1736774597       11.4327890850        4.4227557513
  C         1.9494253879       13.2011820638        9.4396755430
  H         1.7363500776        9.6033696313        9.3401514745
  C         1.3457678239       11.2729862983       10.4729392546
  H         1.0222548138       11.5736614741        5.1253918833
  H        -0.0084097088       11.3252079868        6.7059971201
  C        -0.6230041036       10.2857248495        4.9199468644
  C         4.1536586044       14.2612814076        3.6669755499
  C         1.4187249746       12.6050626538       10.5468228864
  H         2.0958446321       14.2486355346        9.5054770705
  C         0.8643815071       10.9355270222       11.7206906715
  H        -1.4387937860       11.0035689287        5.0112265758
  H        -1.0470070760        9.4668107475        5.3633063531
  C        -0.2564426228       10.1277312834        3.4437730398
  C         4.1259182894       15.6191085111        3.4341918904
  C         4.5788646441       13.4119508033        2.4567275974
  C         1.0513262418       13.3973162668       11.7809657536
  C         0.7713963624       12.0405467278       12.4952159420
  S         0.4988514142        9.4733081792       12.5316935479
  H         0.3885845734        9.2384203221        3.4910727451
  H         0.3221070002       10.8829301362        3.0644625661
  C        -1.5125663603       10.0088647685        2.5331518220
  N         3.8732676935       16.6292865228        4.3823229163
  C         4.4067121119       16.2072413106        2.1890904963
  C         4.9821365124       14.0379131649        1.2605940028
  H         4.6889502026       12.3181078118        2.5161679443
  C        -0.2861756011       14.0972319864       11.6021120029
  C         2.1711944774       14.2257638600       12.4574198855
  C         0.4725307745       11.7033448815       13.8171512540
  C         0.3820776512       10.3624506581       14.0170580675
  H        -2.2120813223        9.3657582412        3.1038930241
  H        -1.9817006700       11.0040337895        2.4487860091
  C        -1.1814210242        9.3245139469        1.2155191543
  S         3.9617893755       18.1349401054        3.7182941687
  N         4.3082908561       17.5755453583        2.2152047355
  C         4.7701077632       15.5057858760        0.9884335264
  H         5.3119755138       13.4330322521        0.4561459635
  H        -0.2628400154       15.0419478183       11.0783809413
  H        -0.6141067764       14.5028684802       12.5783028406
  C        -1.3457173129       13.1964651088       10.9791613965
  H         2.6175839711       14.7802979344       11.6462097995
  H         1.8339123090       14.8197067689       13.3327593547
  C         3.3731970654       13.3576540714       12.9475419662
  H         0.5626496451       12.5098750242       14.5729468401
  C         0.0542489152        9.6569049347       15.3958465708
  H        -1.9184904457        8.5002398446        1.1775734193
  H        -0.2258685606        8.9324308385        1.1547059026
  C        -1.1519623783       10.3119974802        0.0511583698
  C         4.8578860942       16.1816259707       -0.2464667426
  H        -1.0434276568       12.6701556283       10.0882735959
  H        -1.6117202782       12.3229347426       11.5341962946
  C        -2.6359356592       14.0290498086       10.7723409767
  H         3.8329213889       12.6334290335       12.2772656332
  H         2.9877373299       12.7445453185       13.7477378069
  C         4.5411196641       14.2310889554       13.4955922471
  C        -0.0074329843        8.2747121544       15.5952000316
  C        -0.0054119064       10.5036575147       16.6540037743
  H        -2.1599229570       10.7050008963        0.0574053522
  H        -0.5036912198       11.0572587853        0.3711342403
  C        -0.7671100095        9.8348199626       -1.3127843911
  H         4.5968427638       17.2268463926       -0.2084728997
  C         5.2871501667       15.7693409028       -1.5183055911
  H        -2.3394364348       14.7849358406       10.0004136998
  H        -2.8643615016       14.5818191433       11.6753197477
  C        -3.7131362207       13.1253266855       10.2166727857
  H         5.0462698421       14.6492762455       12.6203893109
  H         4.1398593298       15.0447767025       14.0658290277
  C         5.4172442048       13.4109409254       14.3905507175
  N         0.1510742323        7.3578125762       14.5525772070
  C        -0.3284242868        7.6856335108       16.7898426955
  C        -0.2875401325        9.8711759402       17.9181827895
  H         0.3401793605       11.5469197383       16.6103062617
  H        -1.6484244984        9.6615169934       -1.9759683240
  H        -0.0414544432        9.0924374955       -1.4249824729
  H        -0.1820451526       10.7256212789       -1.7307095574
  S         5.7817186309       14.2599935748       -1.9445586581
  C         5.2669730429       16.7705871711       -2.5941976806
  H        -3.3681944736       12.4942925285        9.4216247901
  H        -4.0434964451       12.5528137395       11.0834401372
  C        -4.9009708899       13.9359629254        9.5592193145
  H         5.3363625018       12.4298711834       14.1675087264
  H         5.0183874049       13.5344175825       15.3908113060
  C         6.9631202958       13.7303130310       14.3439917547
  S        -0.1273278315        5.8787041856       15.1681060203
  N        -0.4602674856        6.3156580390       16.6716003443
  C        -0.6427850349        8.3778474525       17.9678096337
  H        -0.2895427901       10.3918755678       18.8423375384
  C         6.1076074914       14.9029683784       -3.5263832144
  N         5.8515452062       16.2322657928       -3.6785323897
  O         4.9373446559       17.9467097465       -2.4328273385
  H        -5.3303396782       14.5278350053       10.2815369743
  H        -4.5123902920       14.6118468583        8.7775927792
  C        -5.8450023730       12.9828567394        8.8523227136
  H         7.2720457896       13.1691363600       15.1894493257
  H         7.4487958881       13.3533094672       13.4677708735
  C         7.2422620404       15.2036822709       14.8299919885
  C        -1.0434501508        7.6145190159       19.1394946953
  S         6.2516438222       14.0190228809       -4.9766242256
  C         5.9554496130       17.0540716661       -4.8711044017
  H        -5.4110533097       12.8096530223        7.8359783781
  H        -5.8401299979       12.0116401710        9.3507408354
  C        -7.2914355827       13.4473753584        8.7668635005
  H         8.0120435506       15.1782501419       15.5592901137
  H         6.4782807187       15.6876106780       15.4817388926
  C         7.7252619054       16.0990499204       13.6462633206
  H        -0.7473086605        6.5424576752       19.1022841763
  C        -1.6598011424        7.9914375762       20.2952039434
  H         6.6451684115       16.5572266015       -5.5256341066
  H         6.4937696394       17.9654884900       -4.6219810487
  C         4.6032257297       17.2344682698       -5.5265270092
  H        -7.6935255880       12.9765387010        7.8704727752
  H        -7.4302320306       14.5384647259        8.5339507119
  C        -8.0501335420       12.8157805996       10.0139452740
  H         8.5851668584       15.5992671674       13.1609954211
  H         6.9598702498       16.4050189812       12.8755459661
  C         8.3247985017       17.3380116246       14.2420902825
  S        -2.3575873419        9.4851806899       20.6312582203
  C        -1.7752130495        7.0544529342       21.4342037711
  H         4.7462469957       17.1349729229       -6.5432897319
  H         4.2668939751       18.2453836766       -5.3865551968
  H         3.9011272421       16.5089581430       -5.1288874206
  H        -7.8619614979       11.7195874905       10.0620661647
  H        -7.6669165199       13.1864675577       10.9253798758
  H        -9.1524687492       13.0333545436        9.9149761910
  H         8.5070445914       18.1148772601       13.4401700512
  H         7.7392841741       17.8249740076       15.0702641012
  H         9.2756737644       17.2146338962       14.7101843193
  C        -2.4994144059        9.0117877171       22.3150600543
  N        -2.3769043526        7.6735294195       22.4647838630
  O        -1.3661798564        5.8805430858       21.3424003667
  S        -3.0425513711        9.8538181780       23.7465536585
  C        -2.3910808344        7.0118664272       23.7787152876
  H        -2.6480196375        6.0346097533       23.7558702720
  H        -3.1865042479        7.3688116187       24.4302152391
  C        -0.9552202927        7.0124404328       24.3988572460
  H        -0.9051491924        6.8488530069       25.5227274327
  H        -0.5257522009        8.0120836011       24.3017111819
  H        -0.2657372959        6.3094911030       23.9378270551
