352
i =
  H        -2.7863399308       15.5337510603       16.6212130058
  C        -3.2012807918       14.4982473054       16.5046682122
  H        -4.2961943966       14.6183397630       16.5750913122
  C        -2.7674193991       13.6159080465       17.5722716952
  C        -3.0947480344       13.8499817671       15.1093426281
  C        -3.0057653372       14.1647488493       18.9200246980
  H        -3.1899207170       12.6663515721       17.4470998282
  H        -1.7679105372       13.3236885110       17.3508777602
  H        -2.8802936274       14.5009627426       14.2332685002
  H        -2.3203789129       13.0870008931       14.9347604390
  H        -3.9948968725       13.3992461303       14.9045309454
  C        -2.1096207374       13.4974025297       19.8844039449
  H        -4.0220622570       13.9960595670       19.1988864855
  H        -2.8569700349       15.2427156803       18.9580931517
  C        -2.5472273521       13.6815131463       21.3432216857
  H        -1.8287796140       12.4743333050       19.6255927367
  H        -1.1735897191       13.9784148253       19.6786097818
  C        -1.6502677132       13.0988940811       22.4136318772
  H        -3.4874111049       13.2739124919       21.5018639436
  H        -2.7282181946       14.7466713647       21.5713891124
  C        -0.3301842798       13.8847875234       22.5804584598
  H        -2.0534236562       12.8750098903       23.2979206393
  H        -1.3772964254       12.1382316606       21.9781542761
  C         0.8965374751       13.1312601398       23.2622657549
  H         0.0390252177       14.2273279125       21.5978619665
  H        -0.6229488569       14.7557562118       23.1934597567
  C         1.2104479741       11.8441789113       22.5601720802
  C         0.4734867105       12.5043176459       24.5268754252
  C         2.1264544821       14.0564075353       23.3381668356
  C         1.0437693546       10.7580475658       23.3576701886
  C         1.6438090962       11.4352282009       21.3066548563
  C         0.5780650255       11.1563068047       24.6369408449
  C         0.0429931519       13.1570020623       25.6588340073
  H         2.4235160789       14.1615087342       22.2903264880
  H         1.7506084056       14.9598379663       23.7168323366
  C         3.3219909869       13.5245941485       24.0331777042
  S         1.4065815114        9.2800858090       22.6009112973
  C         1.9424860626       10.1208199830       21.2103199427
  H         1.7571394269       12.2821763270       20.5799340349
  C         0.2509279637       10.6077886091       25.8561295110
  H        -0.1435749959       14.2244674355       25.4877155798
  C        -0.3194077946       12.6178339522       26.8884335269
  H         3.3983314627       12.4438820179       23.9663154409
  H         2.8765501009       13.6463773226       25.0103544440
  C         4.6687280247       14.2469412212       23.8270144596
  C         2.4212318122        9.4220629718       19.9426048760
  C        -0.1991146528       11.2805051728       26.9885013160
  H         0.3432136746        9.5806298182       26.0612690195
  C        -0.7162949530       13.0711336751       28.1218705806
  H         5.4324282908       13.8952083859       24.4972351463
  H         4.4945947294       15.2746749084       24.2044110673
  C         5.1593442689       14.2813678975       22.3638597512
  C         2.3767097294        8.0186895503       19.6962933413
  C         2.8992772229       10.2709792724       18.8074862422
  C        -0.5822208773       10.6323945104       28.3227573358
  C        -0.8528136236       11.9762555088       28.9254005000
  S        -0.9586086437       14.5502952596       28.9366213126
  H         5.9640276089       14.9682698420       22.4373921600
  H         4.4728154887       14.8156820275       21.6907253180
  C         5.5597351828       12.9054239695       21.8210431624
  N         2.1227336678        7.0668441871       20.6498246699
  C         2.6249885826        7.4553278137       18.4593053249
  C         3.1561862460        9.6754064180       17.6071427063
  H         3.2573107424       11.2673330504       19.1003838081
  C         0.5251317526        9.7813092766       28.9945758471
  C        -1.8428814877        9.8424000535       28.0704585662
  C        -1.0720057866       12.2716416990       30.2854978768
  C        -1.1313175033       13.6859458425       30.4546140940
  H         6.5842131592       12.6280599593       21.9868732897
  H         4.9773742269       12.0282043824       22.2255267457
  C         5.4998022477       12.7909948405       20.2996586236
  S         1.9106496486        5.6428743212       19.9092994023
  N         2.2816383250        6.0803822944       18.4186432031
  C         3.0172921793        8.2004166545       17.3601176308
  H         3.8868855524       10.1870165777       16.9981054886
  H         0.9628254146        9.0435663687       28.3102490910
  H         0.0333960453        9.2995276897       29.8440339095
  C         1.7998267872       10.5972508144       29.4680281270
  H        -1.5534310582        8.9064781062       27.6111175549
  H        -2.1353122544        9.4735712118       28.9864937268
  C        -3.0256593938       10.6537622219       27.4407806822
  H        -1.0729844073       11.5376740276       31.0295561708
  C        -1.6202361474       14.3373972629       31.7456979835
  H         4.4208586550       12.8921193852       20.0095771547
  H         5.7728732664       11.7670216924       20.1258584619
  C         6.5523998230       13.6681993758       19.5238256065
  C         3.3863992438        7.5355538977       16.1674543600
  H         2.3554229458       11.0797806750       28.6331684022
  H         1.4365721661       11.4221514921       30.0899500291
  C         2.6740158144        9.6149529552       30.2107570158
  H        -2.7009551772       11.2524903654       26.5843720538
  H        -3.4187874839       11.4160914265       28.0984243641
  C        -4.1114361414        9.7782689612       27.0049903514
  C        -1.6978647325       15.7344974902       31.9404352138
  C        -1.8166987149       13.5160487203       32.9413723763
  H         6.3934177729       14.7498642775       19.5369643334
  H         7.5636265615       13.4094808569       19.9075368253
  C         6.4807298815       13.1965924125       18.0686124549
  H         3.3534797546        6.4453784747       16.1883297937
  C         3.7294423935        8.0159288737       14.8805648169
  H         3.0947916126        8.8455703655       29.5063836202
  H         2.1213180006        9.0528138029       30.9302863913
  C         3.8449680962       10.2838319970       30.9527932900
  H        -3.7626158362        9.0763339701       26.2176695242
  H        -4.6088238393        9.2272301752       27.7746876341
  C        -5.1496829614       10.6425168431       26.2659065453
  N        -1.5810472262       16.6761986205       30.9393191639
  C        -1.9878736962       16.3558436640       33.1654874621
  C        -2.0516449571       14.1572189739       34.1702315721
  H        -1.9941303536       12.4211993139       32.9635104056
  H         7.2624413445       13.6743874668       17.4081442575
  H         6.7135214759       12.1237845614       17.9762193295
  H         5.5341510423       13.5250652090       17.5111757122
  S         3.9853170576        9.6049075363       14.5293538665
  C         3.9179571839        7.0320666539       13.7684238258
  H         3.8992028269       11.3847085377       30.5989941171
  H         3.4497190104       10.4747411955       31.9922211061
  C         5.1202449523        9.3899346475       30.8723574888
  H        -4.7176095150       11.2415291283       25.4373457413
  H        -5.4511813369       11.5630742044       26.8815458402
  C        -6.3663603786        9.8242956862       25.7530887248
  S        -1.6757813490       18.2147566342       31.5247666888
  N        -2.0910474837       17.7879569154       33.0354933270
  C        -2.2318011561       15.5889698752       34.3347635420
  H        -2.3044378884       13.5743144889       35.0160621801
  C         4.2910017618        9.0622200497       12.8292030247
  N         4.3421188087        7.7153576661       12.6769571049
  O         3.7769882850        5.8094791821       13.8239251675
  H         5.7778220925        9.9954904376       31.4880740385
  H         5.5567768976        9.1911943738       29.9287402926
  C         4.8880643091        7.9594670944       31.3782145153
  H        -6.0149939122        9.0604732791       24.9953619239
  H        -6.8903386805        9.2337979893       26.4913363067
  C        -7.4039338357       10.7889759628       25.2429885294
  C        -2.5461915171       16.3233589626       35.5145868935
  S         4.7318840339       10.0621366869       11.4461830838
  C         4.6510645046        6.9616651086       11.4315632148
  H         4.2608091091        7.9756173889       32.2839879910
  H         4.4576922740        7.4412500913       30.5872959300
  C         6.1396376441        7.2225363194       31.8340524862
  H        -6.9282967457       11.3497938554       24.5400153321
  H        -7.7020716717       11.6004225266       25.9387683825
  C        -8.6558044934       10.1537447926       24.7078929931
  H        -2.2116945426       17.3684904280       35.4918772713
  C        -2.9635860671       15.9452062592       36.7592166593
  H         5.3692422485        7.6661316121       11.0508007759
  H         5.1582259374        5.9859136838       11.4079237322
  C         3.4179343758        6.8068677129       10.5999067018
  H         5.9681234762        6.3675203620       32.5793202100
  H         6.6781899576        7.9840077751       32.4084381359
  C         7.0699029283        6.6882224100       30.7852217616
  H        -8.9767225308       10.8637857273       23.9423327534
  H        -8.4259693549        9.2262285716       24.1662816928
  C        -9.7731891226        9.9767255443       25.7460485132
  S        -3.5817278961       14.3899351079       37.2297790302
  C        -3.1283808274       17.0067051643       37.7752405151
  H         3.6817512489        6.7453247568        9.5358669699
  H         2.9146140471        5.8031457564       10.8760226186
  H         2.7541409645        7.6753631696       10.7297088204
  H         8.0094334435        6.5206374726       31.1973275780
  H         7.1465149096        7.3726329305       29.9781279013
  H         6.6558695400        5.7817542033       30.5450401605
  H        -9.4001688946        9.5940227886       26.7022887375
  H       -10.4861500757        9.1680249617       25.4136943725
  H       -10.2715313642       10.9399277313       25.9737219155
  C        -3.9722191183       15.1614887268       38.7099048841
  N        -3.8311923207       16.4943484474       38.8389299469
  O        -2.8705937359       18.1649339202       37.5683762742
  S        -4.3156323877       14.2083298514       40.1052770807
  C        -3.9415229015       17.2129146858       40.1369286929
  H        -4.0321829783       18.2710277128       39.9273430055
  H        -4.8983977106       16.9335075351       40.6645071317
  C        -2.6297405858       16.9564104783       40.9175948746
  H        -1.6855013764       17.0920680538       40.3935699183
  H        -2.4998083835       17.5974106500       41.7364387764
  H        -2.7141532930       16.0565835025       41.4221771890
  H         7.2477693085       11.3248588652        3.4926426428
  C         7.9589161648       10.4946495872        3.3099981430
  H         7.4017015891        9.6019182391        3.3495193996
  C         8.9234336863       10.3780630253        4.5052321265
  C         8.6329064468       10.5200884374        2.0064647250
  C         8.3248756676       10.5192951568        5.8940179694
  H         9.4407216123        9.4569364769        4.4150691500
  H         9.6545055062       11.1965816589        4.3724626180
  H         7.8570012993       10.7971707465        1.2177098400
  H         9.0459580160        9.5509611002        1.7617958466
  H         9.5065800848       11.2087020372        2.0654481285
  C         7.4548627623        9.3497077192        6.3157784470
  H         9.0683013840       10.8470335366        6.6188411871
  H         7.6431728931       11.3676474157        5.7676333398
  C         6.7775508447        9.5439801984        7.5725071082
  H         8.0393833654        8.4059097278        6.5195911192
  H         6.7809266899        9.1617979287        5.4833373716
  C         5.4769384714       10.3784755217        7.5026066459
  H         7.4687305980        9.9710169304        8.3178535462
  H         6.6417463157        8.5357913638        8.0096560090
  C         4.1367105067        9.5795907438        7.2985434190
  H         5.3378968339       11.0552950637        8.3675242722
  H         5.4937206390       11.0167777866        6.7209973751
  C         2.9122116895       10.5324672155        7.0866918614
  H         3.8696188164        8.9358054602        8.1709408250
  H         4.1941604287        8.9933946054        6.4249830563
  C         3.1673624471       11.8884973839        6.4152994402
  C         2.4999455409       11.2806420733        8.3692599484
  C         1.6658170373        9.8101042281        6.4597979574
  C         2.9305121644       12.9760288740        7.1869650337
  C         3.5069861014       12.3513740991        5.0967084757
  C         2.5294878758       12.6381158066        8.3979438275
  C         2.0763405211       10.6956425185        9.5573708376
  H         1.9954863734        9.2334660310        5.6928882101
  H         1.4008193730        9.1698633371        7.2794418150
  C         0.4711592715       10.6636782716        6.1331804029
  S         3.2187509412       14.5266697946        6.5425182767
  C         3.6226234916       13.7312223677        5.0759575363
  H         3.6952237606       11.5195952706        4.3531046011
  C         2.2501619390       13.3134442650        9.5841559731
  H         1.9365462073        9.6401013520        9.6398043753
  C         1.7508600837       11.4126780129       10.7413470468
  H         0.7742801537       11.7053018708        5.7746320415
  H         0.1489351002       10.9253574931        7.1668283435
  C        -0.4822789838        9.9680794908        5.1351304393
  C         4.1340576890       14.3898026267        3.8808473533
  C         1.7720947959       12.7488244319       10.8378363412
  H         2.3504911395       14.4312173650        9.4833290775
  C         1.3438109215       11.0983602454       12.0005831262
  H        -1.3626934385       10.5728298272        5.1359794802
  H        -0.7806077669        8.9403276824        5.4786803034
  C         0.1024991862        9.9552522352        3.7317874590
  C         4.0704889051       15.7903621894        3.5848410637
  C         4.7442579759       13.5363699670        2.7962913816
  C         1.3005908005       13.5273042380       11.9829930732
  C         1.0864253869       12.2039904245       12.7863935403
  S         0.9967724127        9.5589769297       12.7766391296
  H         0.7830549450        9.0779549367        3.5350008947
  H         0.6831912819       10.8200409810        3.5203045318
  C        -0.9475325419        9.9012728826        2.6383223723
  N         3.7046998055       16.8087137679        4.4454751820
  C         4.4771957940       16.3131442853        2.3517883745
  C         5.0753236212       14.0393380292        1.5611712407
  H         4.8539043541       12.4623541189        2.9240144179
  C        -0.0366430512       14.1671768128       11.7186887360
  C         2.4111310491       14.3634552119       12.6371060305
  C         0.5826656747       11.8605094311       14.0447503730
  C         0.5010329254       10.4950464335       14.2187665995
  H        -1.6184082711        9.1268348989        2.7735388640
  H        -1.5863970575       10.6953342395        2.8847380236
  C        -0.4788867123        9.7379359124        1.2431715747
  S         3.8935644461       18.3138416297        3.6394259625
  N         4.3630895455       17.6819379621        2.2499075071
  C         4.7370076205       15.4890332425        1.2393500119
  H         5.3214283313       13.2865782806        0.8247519385
  H         0.1107609411       15.0523471759       11.0797943407
  H        -0.4425506753       14.6385699895       12.5760031527
  C        -1.1306721648       13.2103286087       11.2532274880
  H         2.6027074248       15.2436981270       12.0097052534
  H         2.0083420267       14.8028782938       13.5304935425
  C         3.6998688390       13.5997109969       13.0151024191
  H         0.1956534588       12.6168080732       14.6562974301
  C         0.1700524878        9.7678084706       15.4639935883
  H         0.0964426528        8.8328129405        1.1505114840
  H         0.3328656206       10.5027874942        1.0124425895
  C        -1.6803241870        9.9503804311        0.2761929960
  C         5.0028493175       16.0861476255       -0.0500339691
  H        -0.8470138220       12.5186522529       10.5009972699
  H        -1.4402001878       12.6391945095       12.1359496700
  C        -2.3081623345       13.9675196913       10.6043042944
  H         3.9864944769       12.8477077706       12.2857219544
  H         3.5157863242       13.1517580357       13.9746476613
  C         4.8791831542       14.5158087436       13.3008391326
  C         0.0742985120        8.3480440202       15.6224072050
  C        -0.0933619188       10.5849119393       16.6886306321
  H        -2.2595923033        8.9897831802        0.3136803416
  H        -2.3785105213       10.6609668853        0.6725461369
  C        -1.2660331755       10.2972642284       -1.1921086532
  H         4.7637977790       17.1086072263       -0.0929114991
  C         5.2989669017       15.5902496013       -1.2856861355
  H        -1.8315867797       14.4885471289        9.8150163581
  H        -2.7439949315       14.6808540161       11.2702056223
  C        -3.3610120278       12.9520288518       10.0634397097
  H         5.1337923212       15.2200757916       12.5538777988
  H         4.4149534271       15.0972791593       14.1076224639
  C         6.0765435166       13.7633689930       13.9121681139
  N         0.3822643098        7.4766930837       14.5373134558
  C        -0.3397052587        7.6942006146       16.7428313534
  C        -0.5069326057        9.9015082028       17.8887994190
  H        -0.0478163359       11.6333077884       16.6985414887
  H        -2.0773978741       10.1571356158       -1.9374311604
  H        -0.5388673441        9.5303319986       -1.6257186637
  H        -0.8261063416       11.3376391631       -1.1203282278
  S         5.3630155270       13.9072394157       -1.6336240422
  C         5.4462256300       16.4750476922       -2.4999757481
  H        -3.2088444643       12.8621217072        8.9842644380
  H        -2.9877013870       12.0032078048       10.4596207002
  C        -4.8072632862       13.2863937998       10.3329956803
  H         6.0984259169       12.7252516776       13.5765888233
  H         5.8811966804       13.7038682215       15.0052325620
  C         7.4719960992       14.3136163652       13.5597356015
  S         0.2323344650        5.8907690683       15.0661583978
  N        -0.2883772308        6.2819803927       16.6246134695
  C        -0.6484802905        8.3450829931       17.9596685338
  H        -0.6823183507       10.5669535281       18.7264248917
  C         5.7823885390       14.3737310605       -3.2954958094
  N         5.8379602603       15.6696572028       -3.5101421571
  O         5.4698252116       17.6825825464       -2.4339702772
  H        -4.9343563638       13.0187279616       11.3797834201
  H        -4.8925525456       14.3780417012       10.2925931537
  C        -5.8155523955       12.5207148530        9.5196048163
  H         8.1973788727       13.7823575777       14.0779410752
  H         7.7276007363       14.1831043903       12.4938280619
  C         7.5859696988       15.7800580214       13.8956189945
  C        -0.9364324936        7.5146083803       19.0917191707
  S         6.6701186850       13.3193959280       -4.3751105132
  C         6.1831026984       16.3237741173       -4.7806453595
  H        -5.1701630693       11.9079516322        8.8408044294
  H        -6.4105220364       11.7823510129       10.1320734167
  C        -6.7473412908       13.4482212963        8.7438580492
  H         6.6923764127       16.1106074376       14.3359868199
  H         7.6817427283       16.3620627672       12.9413392401
  C         8.7644441993       16.0534576900       14.9200714876
  H        -0.8172239487        6.4502440512       19.0506337163
  C        -1.4801538309        7.8741722384       20.2888241896
  H         6.9893293402       15.8015385720       -5.3214319636
  H         6.4849810665       17.3427097383       -4.6173620876
  C         4.9803476024       16.1946500445       -5.5920563738
  H        -7.0789361912       12.9838695611        7.7828921264
  H        -6.2052670476       14.3333668623        8.5035979985
  C        -7.8174387857       13.6861081795        9.7596650789
  H         8.5821663592       15.3237114313       15.6889678644
  H         9.7512176151       15.8032652533       14.4764651721
  C         8.8180371857       17.4888948561       15.4272106835
  S        -2.0616163177        9.4046548016       20.7429819861
  C        -1.5556578802        6.8576338001       21.3646665156
  H         4.1045934912       16.6842502566       -5.2357668235
  H         4.6888920704       15.1425308559       -5.5128858216
  H         5.1162868148       16.2353532337       -6.6912866753
  H        -8.3281062886       12.7959669420       10.1353153240
  H        -7.4409713911       14.2000436575       10.5772263083
  H        -8.5488300301       14.3366479216        9.3015938483
  H         7.7620718327       17.7925339144       15.5158622607
  H         9.4138177440       17.5408184916       16.3330572133
  H         9.3176099839       18.0225492087       14.6278556917
  C        -2.5776720108        8.6364630968       22.2570997947
  N        -2.2167914111        7.3373660652       22.4279858333
  O        -1.2771039375        5.6582239673       21.2290535280
  S        -2.8019212305        9.5350090540       23.7522769501
  C        -2.3988658923        6.5821656446       23.6666065022
  H        -2.6740800986        5.5399988049       23.4521247344
  H        -3.2858980485        6.7195401146       24.3143632477
  C        -1.0533051783        6.7951306860       24.4271223054
  H        -1.1549054758        7.6650296818       25.0287497370
  H        -0.1944909574        6.8408445669       23.7860511337
  H        -0.9780417567        5.9881918696       25.0711486053
