352
i =
  H        -4.1092002704       14.3295953057       16.6814710786
  C        -3.5080723369       13.5504741937       16.4189703826
  H        -4.0753097149       12.6681642857       16.7560001219
  C        -2.2412827995       13.5946960408       17.2829556683
  C        -3.1317853546       13.3063615783       14.9470936595
  C        -2.4994402489       13.9925164145       18.7191319073
  H        -1.8663126670       12.5698327462       17.2156712577
  H        -1.5482902208       14.2529649043       16.8602155433
  H        -2.8901011298       14.2560078287       14.5214214346
  H        -2.2303040901       12.6746424364       14.8278869989
  H        -3.8489603073       12.7822515556       14.3672142470
  C        -2.2012267775       12.9067383257       19.7249014285
  H        -3.5067607631       14.4443498290       18.7878382584
  H        -1.8487310102       14.8261653577       18.9414669595
  C        -2.2275961901       13.4004488190       21.1687655269
  H        -2.9311072926       12.1277482244       19.4697731074
  H        -1.1931357840       12.5025526330       19.5213717607
  C        -1.3148876899       12.7462318826       22.1620830196
  H        -3.2885815364       13.4537237927       21.5696163185
  H        -2.0306090506       14.4947036471       21.1700221408
  C        -0.0908456096       13.5710694369       22.4294531037
  H        -1.8227884734       12.4598479023       23.0986328739
  H        -1.0400309492       11.8285330026       21.6023100069
  C         1.0900300235       12.7613515252       23.1000814523
  H         0.3768115268       14.1044396728       21.6044136473
  H        -0.3447506085       14.3588443115       23.1286963581
  C         1.4526924909       11.4136594131       22.4123541982
  C         0.6552348752       12.0330628235       24.3046597050
  C         2.3209968114       13.6756701096       23.5149754318
  C         1.2677582393       10.3166002584       23.2136892773
  C         1.8976188508       11.0543079638       21.1941225089
  C         0.7817852393       10.6817917808       24.3988144284
  C         0.1353552783       12.5849350851       25.4795535406
  H         2.4467497974       14.4443050505       22.7351010105
  H         2.0049622337       14.2721066048       24.3787227632
  C         3.6156314306       12.9763320842       23.8760997686
  S         1.6320133638        8.8002871555       22.4261899004
  C         2.1017681428        9.7371567665       20.9885599236
  H         1.9053495753       11.7604538175       20.4336161149
  C         0.4297419614       10.0161009876       25.5701246258
  H         0.1184850411       13.6583541094       25.5611102609
  C        -0.1637534148       11.9259709777       26.6520890425
  H         3.9111115945       12.1691528799       23.2118062540
  H         3.4980774261       12.5552545355       24.9083804231
  C         4.8311859917       13.8246015025       23.9912663300
  C         2.5013801897        9.0875129360       19.6593526676
  C        -0.0151144906       10.6054651940       26.7359126620
  H         0.6675297789        8.9864081636       25.5552008749
  C        -0.7115301103       12.2813616777       27.8006965599
  H         5.4695893334       13.1246353899       24.5223016555
  H         4.6098411734       14.5768165233       24.7133031178
  C         5.4137046377       14.2790544083       22.6629755539
  C         2.4961604626        7.7045540074       19.3029958826
  C         2.9090330335        9.9726665545       18.5326173391
  C        -0.4576830205        9.8421443411       27.9527151733
  C        -0.8238246983       11.1745666545       28.6684937217
  S        -0.9611684408       13.8132065706       28.6021093281
  H         6.1092668308       15.0775451839       22.9843254322
  H         4.7584778602       14.7578044988       22.0001103129
  C         6.1082667855       13.1878377404       21.8504529104
  N         2.0977402272        6.6743215749       20.1217408106
  C         2.9241727370        7.2057744907       18.0580374156
  C         3.2808980981        9.5009982564       17.2913795536
  H         3.1584395527       11.0321994434       18.7176765342
  C         0.6108240072        9.0535299921       28.6836464571
  C        -1.7965717453        9.0255472515       27.5921301338
  C        -1.2387036912       11.5794676350       29.9392948952
  C        -1.2641679459       12.9550469524       30.0641187726
  H         7.0496458700       13.6609781201       21.5002110116
  H         6.4800449556       12.4636897315       22.5026139576
  C         5.1840789567       12.7977287890       20.6605853250
  S         2.3134471751        5.2369027691       19.3683027038
  N         2.7629992790        5.8332891005       17.9147518696
  C         3.1491440555        8.0709396436       16.9447099965
  H         3.5530943440       10.0540686124       16.4551164833
  H         0.8167162463        8.1889998662       28.0335521117
  H         0.2527581053        8.4065846992       29.4684910458
  C         1.9021808752        9.8113273502       28.9246898008
  H        -1.7152058067        8.2614358917       26.8466821371
  H        -2.0529805309        8.5574721613       28.5347567062
  C        -2.9848095803        9.8783557542       27.2004191783
  H        -1.1548658182       10.9042571999       30.7991902994
  C        -1.4859708373       13.7435364512       31.3608039514
  H         4.2028259579       12.7449432996       21.0382476822
  H         5.3329961261       11.8130388389       20.4451433578
  C         5.2825304468       13.7438807658       19.4829775370
  C         3.4200669718        7.5189771151       15.6656446957
  H         2.1629482035       10.2460993636       27.9901832074
  H         1.6546011822       10.5971698072       29.7216054603
  C         2.9737075259        8.9078513490       29.4942763612
  H        -2.7338162368       10.5739155474       26.4185770804
  H        -3.3505830582       10.5023944018       27.9779861003
  C        -4.1621510308        8.9687689769       26.8419352188
  C        -1.5688140861       15.1280677287       31.5345820212
  C        -1.6802330704       12.8592271041       32.5418858784
  H         4.3442477106       13.7638830155       18.8420698447
  H         5.0581773442       14.6975262355       19.8805007443
  C         6.5942739770       13.6782317071       18.7398100853
  H         3.0643587980        6.4776692469       15.5399183431
  C         3.7057069407        8.0333667657       14.3702183969
  H         3.4719739114        8.4132815364       28.6678005582
  H         2.5835157428        8.0208562548       30.0172128997
  C         3.9135107483        9.6226874843       30.4244767398
  H        -3.8426692278        8.3350613016       26.0077252977
  H        -4.4544819027        8.3560950470       27.7384826405
  C        -5.4496472110        9.7922578121       26.6646183442
  N        -1.3137250085       16.1496449957       30.5331803860
  C        -1.7837250196       15.6345800104       32.8112346047
  C        -1.9280052897       13.4069744690       33.8231139081
  H        -1.7246721073       11.8154477907       32.5034220838
  H         6.6920846016       12.6263043130       18.4750409111
  H         6.5006389120       14.3180509435       17.8384897066
  H         7.4235200271       13.8756069053       19.4439916983
  S         4.0789991452        9.6551677117       14.0050267494
  C         3.7371859611        7.0409902484       13.2633176405
  H         3.8939082592       10.6243099523       30.1729566774
  H         3.6018487585        9.5806893537       31.4757353243
  C         5.3419824310        9.1039627651       30.3311728479
  H        -5.0736902538       10.7430096494       26.2021900344
  H        -5.8938309620        9.9069960250       27.6249924442
  C        -6.3812036044        9.0997424749       25.6752928713
  S        -1.4931627121       17.5689925537       31.3401198695
  N        -1.8164121073       17.0427126316       32.7856090621
  C        -2.0324341474       14.8996512245       34.0123239895
  H        -2.0569757920       12.7190660854       34.6081797283
  C         4.1463552689        9.0545585487       12.3489158421
  N         4.1662594184        7.7087747200       12.2103969143
  O         3.7036911889        5.7713880038       13.3334988538
  H         6.0411349198        9.7985957239       30.8263909883
  H         5.5245232783        8.9987468545       29.3487007387
  C         5.4651845805        7.7845682691       31.1054698443
  H        -5.7859473957        8.9641748494       24.7524204694
  H        -6.8055762590        8.1029970920       25.9694538812
  C        -7.4851690305       10.1279539101       25.4547926427
  C        -2.2846957581       15.6479288755       35.2003800277
  S         4.7554390843        9.9605598646       10.9489671625
  C         4.3450376197        6.9853282250       10.9641230055
  H         5.9135414404        8.0312598576       32.1220052420
  H         4.5171527296        7.3048851018       31.1194912969
  C         6.4884395856        6.8802204193       30.3727572237
  H        -7.1432284327       10.6941471238       24.5917293418
  H        -7.6222310068       10.8686626586       26.2070702083
  C        -8.9087385020        9.5449446569       25.1242417423
  H        -1.9584193435       16.6398278175       35.1060050682
  C        -2.7653567159       15.2985285578       36.4342735707
  H         4.9525330878        7.5436945883       10.2449287680
  H         4.9239112261        6.0927280778       11.0472435450
  C         3.0028335811        6.7611965002       10.4080726972
  H         7.3094744187        7.5466091945       30.1568897185
  H         5.9861493253        6.4941891967       29.5240520104
  C         7.0931998335        5.6728989909       31.2231001973
  H        -9.4056319663       10.1706909394       24.3899654337
  H        -8.8290511462        8.6431128494       24.5418146086
  C        -9.7278639590        9.5054616326       26.3976375875
  S        -3.3902025193       13.7279684456       36.8502532610
  C        -2.8419903732       16.3934442182       37.4794165772
  H         2.5145027400        6.0145739371       10.9460380065
  H         2.3081049233        7.5632502680       10.4451201474
  H         3.0177760606        6.4709761182        9.3810721400
  H         6.3278140545        5.2229820099       31.8619355591
  H         7.8799994476        5.9694506004       31.8757655439
  H         7.5190523643        4.8976666728       30.5895771093
  H       -10.7435275545        9.7604134599       26.1448595244
  H        -9.4768466647       10.2217446954       27.1602474146
  H        -9.6583121688        8.5939403897       26.9337041594
  C        -3.7777413104       14.5162615916       38.4125598744
  N        -3.4545974340       15.8203427076       38.5142178855
  O        -2.3627079861       17.4687215200       37.3374121512
  S        -4.5743088253       13.8006046464       39.7548489109
  C        -3.6437851028       16.6326629629       39.7151162863
  H        -3.7326725982       17.6762546985       39.4401791084
  H        -4.5961246936       16.3382973210       40.1037627495
  C        -2.5721888150       16.5722467144       40.8105526564
  H        -1.5960675963       16.1867469437       40.4304907889
  H        -2.2780591324       17.5647932821       41.0986470649
  H        -2.8373942375       16.0016362535       41.7440890469
  H         7.3229065936       10.2205798018        3.5271942538
  C         8.1275703967        9.5245152945        3.6894287824
  H         7.6453837110        8.6072987044        3.8882093832
  C         8.9273011075        9.9193816679        4.9681496723
  C         8.9605391579        9.3950123137        2.3151930508
  C         7.9316264593       10.5826063846        5.9351221678
  H         9.4285204461        9.0247170423        5.3511911342
  H         9.7353637233       10.6720865861        4.7081926799
  H         9.0248519337        8.3661544151        2.1751847938
  H         9.8949174786        9.9664191339        2.3865813062
  H         8.4479034342        9.7740197259        1.3862142954
  C         7.1374721693        9.4747575410        6.7431235512
  H         8.4916121714       11.2179013852        6.6121046691
  H         7.2634740802       11.2499057333        5.4632588355
  C         6.3126737376        9.7504483990        7.9998982727
  H         7.7866109248        8.6723286133        6.9376449992
  H         6.4381947245        9.0588014626        6.0040204128
  C         5.1431917787       10.6078325890        7.6414112571
  H         6.9682259756       10.3502229527        8.6499877621
  H         6.1299780269        8.7322650291        8.4825101641
  C         3.8830917157        9.8239227168        7.1858943968
  H         4.9989633508       11.2036975004        8.5047133706
  H         5.4298345614       11.3207077919        6.8276626493
  C         2.6509836323       10.8097888702        6.8724809820
  H         3.6150096983        9.0166107259        7.8717653661
  H         4.1128188787        9.3561229578        6.2719563444
  C         3.0745962797       12.1303354432        6.2290787061
  C         2.1957760317       11.4972495075        8.0877223293
  C         1.5528346555       10.1427866481        6.0667030130
  C         2.7676929925       13.2335893789        7.0302085936
  C         3.6043664811       12.5284837088        4.9740124079
  C         2.2537055783       12.8452247323        8.2491043333
  C         1.8218866357       10.8937378144        9.3012866956
  H         2.0174089193        9.5488736244        5.2348393845
  H         1.0396281271        9.4373700434        6.7011074861
  C         0.4421622134       11.0819661980        5.5190598964
  S         3.2217946822       14.7433720134        6.3185728150
  C         3.6403257401       13.8853266515        4.8785430157
  H         3.8770988854       11.8385607204        4.2051760804
  C         1.9218074784       13.4511388197        9.4263864643
  H         1.8430483442        9.8586485090        9.3606190146
  C         1.5385897922       11.4304170732       10.5011654850
  H         0.7567472162       12.0257819819        5.0440446178
  H        -0.2899163938       11.4459167486        6.1991091066
  C        -0.4468844895       10.2692405582        4.4020580771
  C         4.1432148544       14.5534003155        3.6224825342
  C         1.6503177477       12.7446345472       10.5880020075
  H         1.9740920339       14.5106844802        9.5140549291
  C         1.1512325025       11.0321478492       11.7669926733
  H        -1.2062059124        9.7084964553        5.0118404373
  H         0.1279629813        9.4909599729        3.8121199941
  C        -1.1954994864       11.2010795786        3.4668608772
  C         4.2292561069       15.9520186377        3.5272855772
  C         4.7937151596       13.7768237011        2.5794794357
  C         1.2301755075       13.4313303793       11.8838641423
  C         0.9536491960       12.0823035610       12.6042545972
  S         0.7112503348        9.4699758521       12.4503081253
  H        -0.3891259358       11.7314649679        3.0217022595
  H        -1.8055570709       11.9075327366        4.0373607614
  C        -2.1000000737       10.4501884924        2.4858174643
  N         3.7578387691       16.8851752955        4.4400826348
  C         4.6086889146       16.5779344372        2.3494160868
  C         5.1337001978       14.3652398211        1.3886101592
  H         5.0412584297       12.7167457182        2.7103211409
  C        -0.0498416678       14.2923227399       11.8540460468
  C         2.4117646849       14.1316202137       12.6816346566
  C         0.6188750132       11.5743154935       13.8983612352
  C         0.4750079235       10.2026577183       13.9678817562
  H        -2.4963422173        9.6204313157        3.0706742728
  H        -2.8557655892       11.0128471377        2.0179039442
  C        -1.2937385362        9.6709769289        1.3845456736
  S         3.8896314030       18.3762608862        3.8230973079
  N         4.4556601388       17.9902937258        2.3693669407
  C         5.0211155296       15.8237629963        1.1467476479
  H         5.6032363004       13.7777603199        0.6424977817
  H         0.2144633583       15.2770138059       11.4372365990
  H        -0.5202207671       14.5273571919       12.8188942493
  C        -1.3224782635       13.5248245932       11.2392143648
  H         2.9382583829       14.9468178533       12.0925021671
  H         1.9594035673       14.7176749601       13.4672986003
  C         3.5357844665       13.1926352572       13.1904047286
  H         0.5946614369       12.2204335574       14.7547394822
  C         0.1083307305        9.4624955823       15.1805496589
  H        -1.9749943632        8.9611160561        0.9590764839
  H        -0.5913404461        8.9831720742        1.7569015450
  C        -0.7165500452       10.5956807981        0.3215271147
  C         5.2841001532       16.5202574481       -0.0749734821
  H        -1.1391957571       13.1236364278       10.2817265255
  H        -1.5203201331       12.6976459860       11.8974037507
  C        -2.5862822530       14.3781396144       11.1908105999
  H         3.8970661213       12.5598611438       12.3736694591
  H         3.1435315514       12.6268818215       13.9861760264
  C         4.6795184914       14.0875885087       13.7547902688
  C         0.0221033863        8.0298734237       15.3532496844
  C        -0.2591302846       10.2781493331       16.3875479409
  H        -0.8584792849       11.6133306671        0.6324773289
  H         0.3692285974       10.4447574090        0.2248841544
  C        -1.2583692874       10.4468550703       -1.0743146642
  H         5.4038414060       17.5913150466        0.0605730225
  C         5.6149126353       16.1211419358       -1.3375379888
  H        -2.5472177594       15.1846714736       10.5678463977
  H        -2.7670901122       14.8208898769       12.1091258540
  C        -3.8289999696       13.5937751532       10.7873884537
  H         5.0700922773       14.5230396662       12.9016263386
  H         4.2383146078       14.8154606436       14.4013061677
  C         5.8191704131       13.3610272296       14.4284785341
  N         0.2850301221        7.1487390068       14.3749405119
  C        -0.2674500030        7.4009138667       16.5208386494
  C        -0.5100588781        9.6685912155       17.5817407175
  H        -0.2710828484       11.4122036214       16.3831452572
  H        -0.9431431422       11.2974329175       -1.6508588242
  H        -2.3595320165       10.4387297330       -1.1426630343
  H        -0.6702845881        9.5811767221       -1.5434625140
  S         5.8592492757       14.4976394021       -1.8495723048
  C         5.8412422251       17.1937995358       -2.4132440978
  H        -3.5525581156       12.6375863458       10.3290558735
  H        -4.3930696072       13.4224102448       11.7241078249
  C        -4.8206358616       14.3523964244        9.8167418460
  H         6.2369288595       12.6075755533       13.7750039719
  H         5.2990302356       12.9190409748       15.3034516570
  C         7.0893925023       14.1351046456       14.8669250205
  S         0.2776700303        5.6718233670       14.9361431200
  N        -0.2159527991        6.0288360932       16.4528554497
  C        -0.5363375332        8.1416855267       17.7059351470
  H        -0.8185308022       10.2496871903       18.3980018814
  C         6.2066911400       15.2902078744       -3.4024717302
  N         6.1204100886       16.6238582719       -3.5886749014
  O         5.7245566228       18.4090629302       -2.2153548654
  H        -5.3933442910       15.0576405536       10.3807523957
  H        -4.2153012378       14.8779984581        9.1148943039
  C        -5.7190535828       13.3403578710        9.0558252041
  H         7.5626202560       13.6866437236       15.6652964031
  H         7.8289468371       13.9554603290       14.1326317601
  C         6.9511465755       15.6316005747       15.1221798976
  C        -0.7624465661        7.4032394326       18.8731620127
  S         6.4772651569       14.3739811674       -4.8501239616
  C         6.1513751467       17.3635677887       -4.8720852143
  H        -5.1026012930       13.1734596704        8.1925166213
  H        -5.8679517235       12.3513796247        9.5840655086
  C        -7.1609868072       13.7771276926        8.7894443951
  H         6.6649060560       15.8548262247       16.1496368080
  H         6.1806224446       16.0828494801       14.6460874686
  C         8.1821757104       16.3677765314       14.7853517335
  H        -0.4528000890        6.4039412314       18.8940313163
  C        -1.2893390076        7.7441178945       20.1047681620
  H         6.5739305631       16.8277819890       -5.7452454264
  H         6.7681194363       18.2747004594       -4.7694779995
  C         4.7009066658       17.6273179564       -5.1761945578
  H        -7.8246877018       12.9815065276        8.2945847035
  H        -7.0940458816       14.5736830548        8.0979327674
  C        -7.8768275045       14.2068436667       10.0802368617
  H         9.0697252388       15.9169716739       15.1967308236
  H         8.2256591698       16.3489740497       13.6790700050
  C         7.9989248880       17.7905869247       15.2960187031
  S        -1.8394362992        9.2874297906       20.6649101406
  C        -1.2272641294        6.6883177848       21.1818830619
  H         4.6339781468       18.1786060172       -6.1060754900
  H         4.1608982214       18.1373072935       -4.3758294283
  H         4.1174121996       16.7350411072       -5.3470936996
  H        -7.8109174748       13.4506322216       10.8861530215
  H        -7.4832724335       15.1479800170       10.5871794358
  H        -8.8990252341       14.4659561068       10.0086934537
  H         8.7039743685       18.4482638448       14.9431660885
  H         7.0177710091       18.2350408745       15.0800836874
  H         8.1012356555       17.8789187531       16.3718116097
  C        -2.0676760981        8.4822687574       22.2154976253
  N        -1.8844894343        7.1325023491       22.2331100490
  O        -0.8185207569        5.5523740229       20.9561096575
  S        -2.9988469192        9.2066648557       23.4800119390
  C        -2.0623930141        6.4048576829       23.4861529458
  H        -2.1933644466        5.3712421714       23.2259877916
  H        -2.9278431774        6.7055937167       24.0481470015
  C        -0.7836869355        6.3813408563       24.4251260436
  H        -1.1417903828        6.4610980336       25.5043611052
  H        -0.1612971243        7.2545978640       24.4320556335
  H        -0.1687286838        5.5188445716       24.2784187912
