352
i =
  H        -3.3479512995       13.0035421002       16.3279832279
  C        -2.5706606488       13.6228003205       16.8034669217
  H        -1.7715649618       13.0531215786       17.2551564906
  C        -3.1940244459       14.7284888251       17.7015559401
  C        -1.9002958107       14.3602754704       15.6711012449
  C        -3.6329355212       14.1908886782       19.0929637348
  H        -2.4702301383       15.4809575715       17.9335351392
  H        -4.0254699754       15.2394600422       17.2589591337
  H        -1.1615415177       15.0945010506       15.9840947950
  H        -1.2936892488       13.7774454443       15.0158635164
  H        -2.5721032485       14.9168523497       15.0387209564
  C        -2.5249805866       13.5304255058       19.8899521078
  H        -4.3433436939       13.4299120999       18.8889406298
  H        -4.2023442606       14.9548248623       19.6491313417
  C        -2.5647015514       13.7746389882       21.3663113331
  H        -2.5532428236       12.4995792830       19.6832276565
  H        -1.5757719416       13.8401111145       19.4207052742
  C        -1.5132044098       12.9021714610       22.1281398204
  H        -3.5151478153       13.4337398596       21.7284923751
  H        -2.5129059102       14.7607934354       21.7243778536
  C        -0.2266663847       13.6987817990       22.4677366838
  H        -1.9889191565       12.5512684196       23.0448074088
  H        -1.3666102987       11.9749337891       21.5238889020
  C         0.7846216664       12.9483845915       23.2959442164
  H         0.1960490652       13.8985264432       21.5032920477
  H        -0.4056068111       14.6964901405       23.0699191981
  C         1.1574261239       11.6882856994       22.5719065128
  C         0.3612495915       12.2466968658       24.5225952833
  C         1.9532492045       13.8136171225       23.6666890501
  C         0.9425447706       10.5504684546       23.2936434010
  C         1.8235660832       11.4590635824       21.3224839882
  C         0.4367046765       10.8829422230       24.5565255709
  C        -0.1026317442       12.8128988922       25.6680507665
  H         2.2068743359       14.2940836816       22.7588889514
  H         1.5600303293       14.5966573868       24.3499603930
  C         3.2383550225       13.0920061929       24.1002284521
  S         1.5042040856        9.1342439816       22.5365631295
  C         1.9520085475       10.0951235290       21.1332856455
  H         2.1069900175       12.2551776501       20.6819892933
  C         0.0678652643       10.2570288659       25.7176171549
  H        -0.2491178504       13.8211893542       25.7144863723
  C        -0.4632450280       12.2054540603       26.8079547636
  H         3.5314188078       12.4116274707       23.2871329625
  H         3.0995458170       12.4817993112       24.9422868098
  C         4.2459893824       14.0611927835       24.5665615091
  C         2.4041294751        9.4786500563       19.9074869895
  C        -0.3761015502       10.8735886598       26.9291897887
  H         0.3778575884        9.1698956199       25.7234089951
  C        -0.8565156324       12.6623345603       28.0108460402
  H         4.8591064186       13.6796655610       25.3527343112
  H         3.8551176919       14.9699510383       25.0215960779
  C         5.1104604597       14.6628592049       23.3753020167
  C         2.3813688733        8.1191502176       19.5528083747
  C         2.9941034274       10.3918142926       18.8808428246
  C        -0.8364080155       10.2634736027       28.1962393382
  C        -1.1313983704       11.5616063945       28.8585803079
  S        -1.0460504922       14.2387244141       28.6547551302
  H         5.7208923262       15.4297530060       23.8794367046
  H         4.4903641898       15.1674905566       22.7228143502
  C         5.9304628809       13.6629602760       22.5843180421
  N         1.9991218469        7.1011375679       20.4063997645
  C         2.8341782121        7.6213213245       18.3330611139
  C         3.4203593144        9.9120851496       17.6743113683
  H         3.1317803321       11.4824382667       18.9415983069
  C         0.2472530016        9.4484988259       28.9454654173
  C        -2.0838187362        9.4233646466       28.0040481311
  C        -1.4755198778       12.0654932054       30.1282802030
  C        -1.4321519164       13.4762916281       30.1979247267
  H         6.8838054860       14.0184780865       22.4181883216
  H         6.0417419354       12.7858873788       23.1983952804
  C         5.2785146145       13.2648310894       21.2590016293
  S         2.1132453651        5.6680561006       19.6295727707
  N         2.7061913171        6.2209129129       18.2780192494
  C         3.2111889411        8.4077308871       17.3373806279
  H         3.9091439344       10.5263843368       16.9528784965
  H         0.4503162694        8.6003227419       28.3746580762
  H        -0.1046762295        9.0492766553       29.8554264777
  C         1.5291921466       10.1692652154       29.3090201312
  H        -1.9097839996        8.8779652122       27.1431702437
  H        -2.2862486799        8.7384170197       28.8675300191
  C        -3.4382793292       10.2559136759       27.8648185105
  H        -1.7011934688       11.3213034562       30.8594159984
  C        -1.6661166230       14.2886647238       31.4313173531
  H         4.2139672604       13.2032691144       21.4302534538
  H         5.7090192923       12.2578247314       21.0136535278
  C         5.5948172357       14.1800619745       20.1267676330
  C         3.5155788739        7.7657195275       16.0863010092
  H         1.9161561984       10.8270182249       28.5193549880
  H         1.3019510254       10.8617936100       30.0658368637
  C         2.6801417595        9.1799735192       29.6357994939
  H        -3.2961471969       11.0574229815       27.1661871821
  H        -3.7814467260       10.6912597642       28.7912432115
  C        -4.5699945701        9.2384352538       27.4541842152
  C        -1.6668120969       15.6577317031       31.5497607901
  C        -2.0749556729       13.5115015187       32.6544378903
  H         4.7902611653       14.2781235895       19.4086924821
  H         5.8786631163       15.1302520032       20.5138315533
  C         6.8006744689       13.6678928044       19.4549524583
  H         3.3439917427        6.7266385240       16.1064802339
  C         3.8129577768        8.2736489551       14.8432098536
  H         2.9453652881        8.5001100277       28.8400217312
  H         2.4524460461        8.4092076040       30.4192028509
  C         3.9142473957        9.8837268327       29.9920479871
  H        -4.4039721063        8.7183654637       26.5504980537
  H        -4.7892004433        8.5352011469       28.2548308914
  C        -5.8211451014       10.0513153372       27.0394634524
  N        -1.3007281509       16.5138150386       30.5559113693
  C        -2.0649201281       16.2917217584       32.7255999105
  C        -2.4163682073       14.1058000073       33.8610795131
  H        -1.9422533604       12.4553781140       32.6711315799
  H         7.0931675174       14.5273591224       18.8723425917
  H         7.4921779631       13.3677530114       20.2317416739
  H         6.4629262757       12.8879575221       18.8307022739
  S         4.0326405467        9.8803329008       14.4527310103
  C         3.8931105109        7.3420883302       13.6631881073
  H         4.0450132607       10.7030421725       29.2921170269
  H         3.6920923370       10.2087112893       31.0270266884
  C         5.0841952770        8.8297678320       29.9916351834
  H        -5.8461639370       10.9170752956       27.6757050154
  H        -6.7330411082        9.4653743802       27.3178496106
  C        -5.9681614859       10.2988751337       25.5154690779
  S        -1.3762854171       18.0556429330       31.0830917817
  N        -2.0754355774       17.7114860842       32.5372594773
  C        -2.3648350756       15.5912491339       33.9460324404
  H        -2.5994542157       13.4045072658       34.6832492739
  C         4.4142347001        9.3131175463       12.7783798745
  N         4.3886341684        7.9861489445       12.6092715693
  O         3.6003426233        6.1153241397       13.7764781851
  H         6.0644902272        9.2438627889       30.0332465249
  H         4.9559617044        8.1629678627       29.0974336177
  C         5.1205465454        8.0305343836       31.3228324690
  H        -5.1137167367       10.8291133903       25.1801020610
  H        -5.9421670074        9.4143646604       24.9045629607
  C        -7.3071395622       10.9416615478       25.1732312450
  C        -2.5783175826       16.3601809489       35.0826619990
  S         4.7318795379       10.2447984678       11.3733275399
  C         4.5055476309        7.3163080351       11.2669804296
  H         5.7600470279        8.5397995378       32.0689833695
  H         4.1149852192        8.0371335732       31.8465553384
  C         5.6609726785        6.5871676784       31.2674638728
  H        -7.2360371362       11.3227008647       24.1263696287
  H        -7.5043732883       11.8614089591       25.8219227123
  C        -8.5031268667        9.9223413950       25.0941765694
  H        -2.2963289261       17.3720404782       34.9212384073
  C        -2.9785441855       15.9656163829       36.3351153206
  H         5.0429264679        7.7177051664       10.3948969475
  H         5.0106694686        6.3793100246       11.5003657266
  C         3.0582219076        7.1372334770       10.7709157402
  H         5.2381596971        6.0460007946       30.4359854468
  H         5.2022977092        6.1792015633       32.1627629047
  C         7.1568228672        6.4915163886       31.4223124786
  H        -9.1930925877       10.0389770571       24.1757247575
  H        -8.0851654462        8.8965892056       24.9252037643
  C        -9.4482517616        9.7994514846       26.2116195023
  S        -3.5053270712       14.4878660332       36.8246020776
  C        -3.0428367965       16.9912126842       37.3978052113
  H         2.5776524249        6.3715164032       11.2966192850
  H         2.4522995263        8.0850994707       10.9660483739
  H         3.1432044653        7.0603720034        9.6798783748
  H         7.4777980105        6.7061304957       32.4492495671
  H         7.4583516826        7.2241479856       30.6782240379
  H         7.5447540030        5.5037467104       31.0607076969
  H        -9.1821229242        8.9018584863       26.8003343375
  H       -10.4282796445        9.4693810769       25.7848628520
  H        -9.6031972965       10.6741791757       26.8588892148
  C        -3.8206887306       15.1678870394       38.4756265110
  N        -3.5992941592       16.5183217318       38.5073104824
  O        -2.6825201548       18.1336755618       37.2686336508
  S        -4.5290897456       14.3475329847       39.9135271275
  C        -3.7804297174       17.3967816106       39.7025110140
  H        -4.1098131734       18.4472109602       39.5190015181
  H        -4.5242864432       17.0095512893       40.3379278282
  C        -2.4292188398       17.5308474048       40.4023588958
  H        -1.8998394709       16.6850458686       40.7465875928
  H        -1.7265737344       18.1236516917       39.8275658548
  H        -2.5725772838       17.9638054951       41.3409234257
  H         7.2242196334       11.5276884875        3.3163449559
  C         7.7599422922       10.6170187808        3.5223766489
  H         7.0279122956        9.7646793238        3.6542832364
  C         8.7013959212       10.8406655709        4.7383458263
  C         8.4417350369       10.3951236768        2.1818654053
  C         7.9655346472       10.9374507297        6.1035643037
  H         9.4658709908       10.0594332217        5.0248791030
  H         9.2336579193       11.7743485008        4.5462696215
  H         9.0594419776       11.2772726143        1.9408686283
  H         7.6405652396       10.3211425394        1.4905554295
  H         9.1578677710        9.5814566845        2.0575043372
  C         7.2504121515        9.6144376379        6.5825389060
  H         8.6219691986       11.1932771993        6.8916978985
  H         7.2551678269       11.7879735539        6.0064557924
  C         6.5193409387        9.8026530019        7.9805241808
  H         7.9982519009        8.8205055262        6.6115691813
  H         6.5049523014        9.2964619975        5.8639487384
  C         5.2412705131       10.5883527317        7.8121728639
  H         7.1864818630       10.3004279059        8.6527200538
  H         6.2326071993        8.8024778478        8.3324048586
  C         4.1174426435        9.7704381556        7.2151048880
  H         4.9420475707       11.0241948480        8.7949724947
  H         5.4069499865       11.3020676928        7.0319913172
  C         2.8597213323       10.6414366619        6.9108680460
  H         3.9471921412        9.0594589319        8.0405631969
  H         4.3680862664        9.1577230137        6.3507910833
  C         3.1636043226       11.9855632818        6.1718176984
  C         2.5179919971       11.4454496328        8.1425746053
  C         1.5850118844        9.9536044959        6.4176696152
  C         2.9550070044       13.1538738929        6.9536199472
  C         3.6563604809       12.3324794712        4.9454269484
  C         2.5426939317       12.7951759332        8.2129501462
  C         2.0557486096       10.8505518460        9.3234362746
  H         1.8290633927        9.2820081567        5.5749220290
  H         1.2413591346        9.3912047566        7.2564086279
  C         0.3858008723       10.8907686331        6.1179736436
  S         3.3167097773       14.6393250901        6.1963324577
  C         3.8021100536       13.7303101188        4.7957954873
  H         3.8259324121       11.5617194614        4.2149668978
  C         2.1363004550       13.4198593650        9.3207927234
  H         1.9111842628        9.7618819925        9.3011423530
  C         1.7262820916       11.5006458200       10.4442237848
  H         0.7419522222       11.6939961274        5.4576441252
  H         0.0660606555       11.3864853461        7.0267310000
  C        -0.7691761191       10.1613704284        5.3491835734
  C         4.2349233039       14.3755561422        3.4916613526
  C         1.7021959647       12.8636663998       10.5300976814
  H         2.2551702898       14.4980193498        9.3154524710
  C         1.2751770472       11.1646220832       11.7025843303
  H        -1.6109133125       10.7967734426        5.4767857782
  H        -1.0020951392        9.1940149551        5.8665416047
  C        -0.3112490914        9.9600323737        3.9237835842
  C         4.2174957603       15.7522115114        3.2075747925
  C         4.6251630040       13.5475364967        2.3115021357
  C         1.2336753545       13.5756244479       11.8312681678
  C         1.0375302993       12.2886939024       12.5095949596
  S         0.9094023184        9.6992542979       12.3951653783
  H         0.5660211791        9.2580964265        3.9257301260
  H         0.0897035868       10.8525096154        3.4233290766
  C        -1.4980394966        9.5940534470        3.0263275802
  N         4.1456131197       16.7393996318        4.2051190261
  C         4.4955180724       16.2688379582        1.9317835484
  C         4.8126372922       14.0502217746        1.0194264482
  H         4.8434893393       12.4891142510        2.4502295899
  C        -0.1311602620       14.3447804303       11.6237093835
  C         2.3323061290       14.4340283084       12.4570615532
  C         0.7452724266       11.8825673894       13.8082524110
  C         0.5692431903       10.5339246912       13.8726916487
  H        -2.1151789896        8.8476722026        3.5802866001
  H        -2.0885704657       10.5472951049        3.0121656585
  C        -1.3832107748        9.0754593750        1.5812555202
  S         4.1998527539       18.2203411723        3.4279751072
  N         4.3968201828       17.6602796098        1.9340886821
  C         4.7278900844       15.4682346780        0.7896722419
  H         5.1219184711       13.3289156095        0.3019231610
  H         0.0271899939       15.2710545555       11.0121340965
  H        -0.4823401411       14.7959146750       12.5898501553
  C        -1.1803794650       13.5040243503       11.1392070907
  H         2.5999095501       15.0479196928       11.6140908961
  H         1.9486176138       15.0309713917       13.1902764813
  C         3.4989522564       13.5873047760       13.0333065337
  H         0.7101010681       12.5880458109       14.6298789642
  C         0.2642403010        9.7483657304       15.1637815808
  H        -2.3650758391        8.7208136477        1.2458179399
  H        -0.7209413318        8.1771203231        1.6714231906
  C        -0.9320869252       10.2142084329        0.6268313153
  C         4.9993394450       16.1462259004       -0.4506467948
  H        -0.7967775072       13.1282054170       10.2267691902
  H        -1.4430211596       12.6050149252       11.7238899522
  C        -2.4988139311       14.3333191643       10.8738173532
  H         3.8568700091       13.0196753196       12.1867252309
  H         3.1500597655       12.9664880265       13.8616920014
  C         4.6622865257       14.3460105705       13.5532174266
  C         0.1657769178        8.3541280802       15.2933409376
  C        -0.0039701216       10.4654201862       16.3687364142
  H        -0.4757796451       11.0521562727        1.1302029013
  H        -0.0888602015        9.7868279784        0.2246310111
  C        -1.8408161385       10.5437892581       -0.5441146177
  H         5.1247252584       17.2291637731       -0.4533498174
  C         5.3152605669       15.6890128838       -1.7142520326
  H        -2.2463674554       15.1249640726       10.1297572027
  H        -2.9169139897       14.8496226710       11.7902559635
  C        -3.5757583572       13.4109619878       10.2280083741
  H         5.2756862467       14.5823772707       12.6850733178
  H         4.3531665291       15.2119153171       14.1147606100
  C         5.5159924387       13.4798042385       14.5080845115
  N         0.5468735761        7.4744272792       14.3250350019
  C        -0.2474685543        7.7409525981       16.4280313870
  C        -0.3455292618        9.8726256319       17.5760298664
  H         0.0542165699       11.5666586000       16.3524900282
  H        -1.3526184915       11.3765037608       -1.0067415732
  H        -2.8498299649       10.8961523263       -0.2368554230
  H        -1.9861522431        9.7607053481       -1.3004001562
  S         5.5663438438       14.0821870731       -2.1888663241
  C         5.4426510910       16.7278510365       -2.7801502365
  H        -3.0215439393       12.6502541213        9.7031416142
  H        -4.2315479453       13.0020842234       11.0376428643
  C        -4.5068651059       14.2883054109        9.3101792571
  H         5.6133277459       12.4799590165       14.1152494352
  H         5.0667526069       13.3936853889       15.4492520666
  C         6.8954970823       14.0640538595       14.6675606253
  S         0.2806328870        5.9197639904       14.8235560809
  N        -0.2943651398        6.4120669469       16.2711678923
  C        -0.4588695625        8.3839054830       17.6402432174
  H        -0.6124677846       10.4891544986       18.4692329372
  C         5.8412721315       14.7591113224       -3.7752847451
  N         5.8155274799       16.0613932502       -3.8992002657
  O         5.2392789522       17.9356150950       -2.6937888607
  H        -4.8769517774       15.1435625405        9.9593576685
  H        -3.8389753889       14.6454089238        8.5235382249
  C        -5.6189508644       13.3151747302        8.8292005774
  H         7.4652497508       13.2227962300       15.1526895722
  H         7.4678953600       14.1828660112       13.7867765306
  C         6.8804908866       15.2665640819       15.4743179042
  C        -0.7115398211        7.5468652253       18.7932900257
  S         6.1588700350       13.7786562370       -5.1610874141
  C         5.9490314301       16.7207118943       -5.1148894230
  H        -5.1074372586       12.7181310079        8.0176155771
  H        -5.7627581289       12.6150394325        9.6886540583
  C        -6.9863564410       14.0712707511        8.4303196332
  H         7.1263578895       15.0490669474       16.5260824305
  H         5.9342567296       15.7527606686       15.4438343952
  C         7.9346569736       16.3002315656       15.0565283938
  H        -0.5555090522        6.4706163280       18.6593380437
  C        -1.2694830314        7.8517711579       20.0427913375
  H         6.6688861246       16.3017753304       -5.8763947361
  H         6.3301455815       17.6442251383       -4.8262310169
  C         4.6324336285       17.0355108707       -5.8778131369
  H        -7.6058306298       13.4676928353        7.7268972226
  H        -6.7566784801       15.0098005088        7.8798860907
  C        -7.8695650663       14.4055600065        9.6889473070
  H         8.3693480108       17.0212997693       15.7803043264
  H         8.7855536063       15.7599405707       14.6575985924
  C         7.4385875870       17.3288235530       13.9499056405
  S        -1.9597634633        9.2907848291       20.5912104482
  C        -1.3036732579        6.7660858986       21.0615592310
  H         3.8725527564       16.2984408718       -5.6489679520
  H         4.7553250698       17.1580682773       -6.9934489823
  H         4.1785233124       17.9795715846       -5.6818493640
  H        -8.0770189828       13.5030526174       10.2041667995
  H        -7.5603628406       15.2806472154       10.2894149208
  H        -8.8995288180       14.6431641581        9.2647953791
  H         6.9667959329       16.8266384113       13.0773362818
  H         6.5588231170       17.7850037262       14.3915319904
  H         8.2206745250       18.0392900045       13.5717609753
  C        -1.9838532643        8.5554846900       22.1282878131
  N        -1.7434524899        7.1984267707       22.2399177685
  O        -0.9516940869        5.6660808489       20.8323135620
  S        -2.7096291715        9.3479832356       23.5168134679
  C        -1.8338043876        6.3725121591       23.4379108957
  H        -1.9513564061        5.3063602428       23.1942647865
  H        -2.5791865397        6.6528126873       24.0714666019
  C        -0.4698457629        6.4765553759       24.2000374804
  H         0.2718254336        5.7881407645       23.8370684544
  H        -0.5053849495        6.2787158723       25.2835288405
  H        -0.0816854274        7.4132464925       24.0060022244
