352
i =
  H        -3.8969275395       14.7088740596       16.4195800019
  C        -3.3418776316       13.7843404501       16.2882138901
  H        -4.0518438409       13.0061162722       16.4486759657
  C        -2.3975217016       13.6152204865       17.4801868843
  C        -2.6104711724       13.6012049788       14.9375419318
  C        -3.0231120382       14.0500410798       18.8358975631
  H        -2.1803165335       12.5607008970       17.5725854386
  H        -1.5042320341       14.1336016965       17.3233282900
  H        -2.1248888777       14.4605372528       14.6262042445
  H        -1.9138866926       12.7754274429       15.0077359829
  H        -3.4138815813       13.4010822924       14.1519007075
  C        -1.9630916413       13.7645533595       19.8722449085
  H        -3.8853514317       13.3504201127       18.9707808011
  H        -3.3998271667       15.0248990490       18.9464240425
  C        -2.4551043161       13.7818078601       21.2978537235
  H        -1.5634691758       12.7108726096       19.8034751891
  H        -1.1551050405       14.4228603985       19.7792061776
  C        -1.3666082024       13.1476233692       22.1367070028
  H        -3.3098175352       13.0462903662       21.3118896053
  H        -2.6853734237       14.8157620922       21.6438024783
  C        -0.0958963754       13.9562463595       22.4337822653
  H        -1.8339283948       12.8649206927       23.1842848035
  H        -1.0592945524       12.1840740286       21.7544043747
  C         1.0389299701       13.1868086096       23.0886847383
  H         0.2829687637       14.3556475038       21.5096981139
  H        -0.2062296339       14.9086146352       22.9754871392
  C         1.3642470533       11.8750208985       22.4069909257
  C         0.6655017692       12.4844778936       24.3364475522
  C         2.3430552669       14.0739226259       23.2577284591
  C         1.1437099683       10.7773953014       23.1788813225
  C         1.8205914995       11.5029622344       21.0874641164
  C         0.6730774110       11.0980277041       24.4261715191
  C         0.2899909120       13.0860611684       25.5941841231
  H         2.5801220773       14.5040429357       22.3051396485
  H         2.2942949917       14.8308410562       24.0763964821
  C         3.5658318514       13.2315097572       23.6501152926
  S         1.4140148369        9.2996557980       22.3912820464
  C         1.8713727341       10.1020134428       20.9470895118
  H         2.0885743967       12.1718978215       20.2782867974
  C         0.2516997299       10.5167963319       25.5461869633
  H         0.1715713035       14.1485230804       25.7181012402
  C        -0.0861954696       12.4136401290       26.7445795459
  H         3.8161120059       12.4581622815       22.8789917157
  H         3.1786812991       12.6716566250       24.4879819391
  C         4.7995120515       14.0951259477       24.0618072720
  C         2.1918358427        9.3618494475       19.6864509174
  C        -0.1966089539       11.0786836076       26.7267080125
  H         0.2687028744        9.3956700931       25.5405253475
  C        -0.4543389745       12.7560040689       28.0143392324
  H         5.6258301303       13.4371699562       24.4104280047
  H         4.6562358807       14.6952656961       24.8820180642
  C         5.2458220903       14.9393177072       22.8804399764
  C         2.2575498943        7.9400272203       19.4678547949
  C         2.6111212077       10.1726086891       18.5685408486
  C        -0.6707904732       10.3862475905       27.9527142760
  C        -0.9348292650       11.6153274233       28.7142060488
  S        -0.8508337856       14.1638677369       28.8065369059
  H         5.8786970673       15.6682477282       23.3349473231
  H         4.4157943418       15.4618175875       22.3716513486
  C         6.1510242871       14.2407907980       21.9170711961
  N         1.9173772307        7.0525767954       20.4563473735
  C         2.6089627125        7.3252798162       18.2684424664
  C         3.0594812761        9.5762127935       17.4315423782
  H         2.7336821612       11.2256944997       18.7026049385
  C         0.5252843505        9.5567822551       28.5612381605
  C        -1.9569221644        9.5980984136       27.8600275802
  C        -1.3732958209       11.9824572581       30.0333144890
  C        -1.3222705216       13.3094434061       30.2575033694
  H         6.8794733478       14.9144374941       21.5427567875
  H         6.7360146703       13.4187510447       22.4592055882
  C         5.4117068640       13.6043846372       20.7209985120
  S         2.1178086343        5.5767132829       19.9279758767
  N         2.6566345090        5.9242119952       18.3954583490
  C         3.0959305586        8.0938267640       17.1974713897
  H         3.4083017116       10.2588626953       16.6809459234
  H         0.8020926039        8.7376561829       27.9403922151
  H         0.0775851029        9.1013022783       29.4340932456
  C         1.7389420419       10.3850966517       28.9645708923
  H        -1.6845488049        8.6758980563       27.3653727569
  H        -2.2733487977        9.5130269194       28.8292172320
  C        -3.0308229364       10.2204183919       27.0128630690
  H        -1.6614587575       11.2177309599       30.7485287238
  C        -1.5835628762       14.0772576446       31.5433745779
  H         4.4150498789       13.9874821540       20.7376960785
  H         5.3414652920       12.4843106464       20.7335140132
  C         5.7861057012       14.1743034357       19.3795497528
  C         3.4800838208        7.4971922144       15.9898442287
  H         2.0985116218       10.9469247817       28.1946320713
  H         1.4324540397       11.0200975405       29.7642988547
  C         2.7842713729        9.3796152742       29.4795012238
  H        -2.6910356429       10.4845666639       26.0047708790
  H        -3.3255255652       11.1798422602       27.4714890887
  C        -4.3445358956        9.3247757912       26.8303734501
  C        -1.7097316012       15.4722744185       31.6419792515
  C        -1.6448334236       13.2457932463       32.8161488417
  H         5.0320720455       13.9389575352       18.7246066032
  H         5.8209287963       15.2550864410       19.5730022127
  C         7.1616414964       13.7094826611       18.9398946574
  H         3.2744765610        6.4650295655       15.9540349641
  C         3.8737155756        7.9097277314       14.7200682975
  H         3.0839966401        8.7239114756       28.6690437662
  H         2.3783010127        8.6814271317       30.1613327449
  C         3.9400263312       10.2447197515       30.1589421639
  H        -4.2391347699        8.5191139008       26.1184877544
  H        -4.5395677213        8.7243385670       27.7333667931
  C        -5.5565359305       10.1976561781       26.5343810372
  N        -1.3879674861       16.4057777620       30.6618102324
  C        -1.9251622109       16.0663659587       32.8952743496
  C        -1.9402432907       13.8150997965       34.0626718468
  H        -1.5968173807       12.1352936730       32.8370909080
  H         7.2411367212       12.6453646516       19.0481011121
  H         7.3911293134       14.0825486745       17.9315760361
  H         8.0047640255       14.0150459114       19.5893401894
  S         4.1763329481        9.4783711821       14.1546259128
  C         3.7868143041        6.8901969200       13.6372558804
  H         3.9641513639       11.1902331147       29.5567684571
  H         3.6652887214       10.4647799793       31.1873085771
  C         5.2592390365        9.4894201818       30.0352654012
  H        -5.2374486875       10.9621825741       25.8478930285
  H        -5.9324691072       10.7644656336       27.3798619724
  C        -6.7517944611        9.4200861847       25.9834798772
  S        -1.4497138263       17.8902976189       31.3361816395
  N        -1.9899417138       17.4512067298       32.8583420017
  C        -2.1541354561       15.3159188484       34.0897999725
  H        -2.1198749575       13.2147321741       34.8847954874
  C         4.3261252197        8.7980729605       12.5263197108
  N         4.2750138694        7.4270778839       12.4951132842
  O         3.4618239708        5.7337560316       13.7889740658
  H         6.1654513531       10.0956271149       30.0596628449
  H         5.1951839236        8.8884634266       29.1274069743
  C         5.3240139178        8.5473886597       31.2826962186
  H        -6.3963434772        8.8545707759       25.1662787739
  H        -7.2340894433        8.6519875126       26.5661585299
  C        -7.6897550518       10.3789699486       25.2296659998
  C        -2.5065723473       16.0120087578       35.2700403133
  S         4.7045508299        9.7243206685       11.0968343424
  C         4.3695293412        6.5653959606       11.3031099425
  H         5.7385666526        9.0233767891       32.2272148946
  H         4.2366513517        8.4261965364       31.5933839102
  C         6.0268530292        7.2934403176       30.8146476843
  H        -7.1711538043       10.9070729159       24.3839048512
  H        -7.7888992819       11.2922625270       25.8623565093
  C        -9.0544409068        9.8484600638       24.8236721060
  H        -2.3327595677       17.1145466881       35.1802245258
  C        -3.1354761774       15.5816245638       36.4379382616
  H         5.3250485940        6.7500032787       10.7697857599
  H         4.6049703966        5.5195161991       11.5567848859
  C         3.1445923306        6.6824187755       10.3152246354
  H         6.5916750413        7.4628549010       29.9174121973
  H         5.2345095419        6.5922244226       30.5314092746
  C         6.8921883022        6.6342877085       31.8876256731
  H        -9.4470414116       10.4806192030       24.1057765220
  H        -9.0554585170        8.8080698683       24.4483668102
  C       -10.0600084789        9.7543341277       25.9725943934
  S        -3.7912664460       14.0632173695       36.7846945022
  C        -3.2462133322       16.6475684175       37.5216607433
  H         3.4702812614        7.4810273165        9.5874395565
  H         2.9040105487        5.7248043480        9.7863318770
  H         2.2453574428        7.1760475738       10.7732382305
  H         7.4849302229        7.3972427293       32.2778126115
  H         7.6913249063        5.9466639560       31.5180899858
  H         6.3547637765        6.0749761130       32.6381593410
  H       -10.6590028046        8.9043289987       25.7349641143
  H       -10.7991898132       10.5893524670       26.0750232336
  H        -9.5576297768        9.7714768050       26.9359387699
  C        -4.1325918850       14.7088109504       38.4258942831
  N        -3.7844187381       16.0370385106       38.5975554875
  O        -2.9302466989       17.8570792058       37.4633712175
  S        -4.8203782223       13.8278213807       39.7852024992
  C        -3.9960045751       16.8452920648       39.7421015094
  H        -4.0791721830       17.9166195229       39.5290619567
  H        -4.9937930628       16.5186706018       40.0429719518
  C        -2.9560453100       16.6207363812       40.8789874522
  H        -1.9570320266       16.6489221281       40.4280261830
  H        -3.0472366361       17.5423915152       41.4945632637
  H        -3.2236609291       15.6903257985       41.3289589888
  H         7.4592216209       11.4790348446        3.3350914332
  C         8.2027790623       10.6331353983        3.3892713745
  H         7.6572710793        9.7351986448        3.4230253522
  C         8.9534602667       10.6462499828        4.6410299252
  C         9.0605092527       10.5727161209        2.1464249427
  C         8.0993190701       10.8426718278        5.8634955705
  H         9.5601136979        9.7221438901        4.7032676464
  H         9.6694233478       11.4949577704        4.6043008468
  H         9.7287011192       11.4242889782        2.0750571949
  H         8.5085831329       10.5046126134        1.2026949888
  H         9.6963873076        9.6475377295        2.1856780829
  C         7.4435687951        9.5970269456        6.4089933813
  H         8.7905649897       11.3151577587        6.5537798612
  H         7.3711908229       11.5669467323        5.5190573317
  C         6.8424574429        9.6908780502        7.8323572666
  H         7.9732818686        8.6228317015        6.4367266625
  H         6.6585145412        9.1976616323        5.7853703199
  C         5.6336582249       10.5469598092        7.8244751488
  H         7.4976160108       10.2656831769        8.4589846372
  H         6.7188149500        8.7264409889        8.2522546889
  C         4.4066886955        9.7809427648        7.3695846417
  H         5.4230302555       10.9121536739        8.8476363666
  H         5.7770259005       11.3511447676        7.1669816800
  C         3.0794786779       10.6064399353        7.0599990240
  H         4.2544696358        8.9753950015        8.0481444042
  H         4.6711194404        9.2974464912        6.4180464600
  C         3.4261622167       11.9414835362        6.3553121921
  C         2.5551150878       11.2661776390        8.2785475184
  C         1.9604677785        9.8924599695        6.2897435709
  C         3.0828435476       13.0036863519        7.1241333830
  C         4.0490509584       12.3689443632        5.1053650332
  C         2.5914404073       12.6127073908        8.3381182324
  C         2.1661091239       10.6865952867        9.4948267091
  H         2.3999395748        9.2860158587        5.5221089288
  H         1.4825585022        9.1797270138        6.9442794327
  C         0.8946021624       10.8027338706        5.6908268704
  S         3.3679282148       14.5505487176        6.3771380401
  C         4.0122733513       13.7073821695        5.0248905424
  H         4.4582922994       11.5812128780        4.4562734969
  C         2.2189897955       13.3242906173        9.4332373243
  H         2.1712908181        9.5936533391        9.6091225039
  C         1.7797406365       11.3318543364       10.6118525874
  H         1.2479035337       11.4472372281        4.9698489203
  H         0.2794048427       11.3062088672        6.4406636355
  C        -0.1533924426       10.0238007300        4.8582253514
  C         4.4123058037       14.4649807680        3.8182670099
  C         1.7439914396       12.6513812216       10.6199718961
  H         2.2327886999       14.3861701626        9.3998029271
  C         1.3166736785       10.9751277140       11.8558164278
  H        -1.1598898284       10.5460440477        5.0719376338
  H        -0.2389639637        9.0148517692        5.1937621668
  C         0.1710723555        9.9998716957        3.3539666629
  C         4.2666698290       15.8680772602        3.5540252220
  C         5.0321582884       13.7014400814        2.6558077800
  C         1.2606688055       13.3959536354       11.8937128595
  C         0.9440683856       12.0739982149       12.6007720819
  S         1.0576340168        9.5293913459       12.7047243422
  H         1.1613506335        9.5212642503        3.3713989473
  H         0.3044163708       11.0707814103        3.1097892526
  C        -0.8405842270        9.5775512509        2.3275992030
  N         3.8324268909       16.7617801257        4.5014890688
  C         4.5129085364       16.4611014826        2.3069317175
  C         5.0218445922       14.2880601232        1.3628901773
  H         5.2060277550       12.6516772216        2.7451267876
  C        -0.0086346803       14.1972807859       11.6139458309
  C         2.4037123439       14.2272223667       12.6371132177
  C         0.5267185980       11.7726926600       13.8922245741
  C         0.5108692054       10.4108570338       14.1014026348
  H        -1.4349567492        8.7900484172        2.8163326049
  H        -1.5822025487       10.4298513912        2.1082083790
  C        -0.2107553513        9.2445071920        0.9305482483
  S         3.8459863057       18.2586873729        3.8782420903
  N         4.2968962991       17.8460896121        2.3481077616
  C         4.8681368841       15.7530186786        1.1567537683
  H         5.4207671178       13.6602812608        0.5553508358
  H         0.3329487192       14.8917493451       10.8702037652
  H        -0.3039828244       14.7757799219       12.4756122837
  C        -1.2726544332       13.5023852849       11.1384412983
  H         2.4873705977       15.2177380824       12.1807462807
  H         2.1035452257       14.4878200633       13.5975060802
  C         3.8044914306       13.5601060272       12.5605148573
  H         0.2284942368       12.6063866853       14.4661060449
  C         0.0106581449        9.6575452905       15.3186497574
  H        -0.2974025497        8.2241217369        0.7415335674
  H         0.7914603220        9.5475280071        0.8293598456
  C        -0.9187760964       10.0487129876       -0.1261179982
  C         5.1123481883       16.4555433516       -0.0588201631
  H        -1.0397413167       12.9677060182       10.2426699743
  H        -1.5554746076       12.7811687051       11.8538732502
  C        -2.4207188104       14.3798772894       10.7057889528
  H         4.2095419941       13.6996897173       11.5555495343
  H         3.5202894363       12.5366236913       12.6791583309
  C         4.7700296184       14.0043856888       13.6251168865
  C         0.1572874326        8.2616199635       15.5454421043
  C        -0.3838263553       10.4169368298       16.5589731674
  H        -2.0104478253        9.9250404520       -0.0149761790
  H        -0.8677882635       11.0678373114        0.0847378196
  C        -0.5674213468        9.7451652245       -1.5768793427
  H         5.1695855908       17.5634223564        0.0957458546
  C         5.3254808729       15.9956173282       -1.3372388342
  H        -1.9846528937       15.2552313774       10.0824806327
  H        -2.7972617800       14.8976293742       11.6026729161
  C        -3.5345995957       13.5427639748       10.0703797958
  H         4.5248816812       15.0103723705       14.0119488702
  H         4.6608040089       13.4401448715       14.5313548384
  C         6.2009089113       13.8282951856       13.2436440606
  N         0.5401806662        7.3645048869       14.5229100396
  C        -0.1137141410        7.6334162604       16.7105506317
  C        -0.6229447539        9.7937455402       17.7540730692
  H        -0.5805838466       11.4798439501       16.4232882496
  H        -0.9466814710        8.7907931636       -1.8942741161
  H         0.5345017074        9.7487706902       -1.6547736958
  H        -1.0696969164       10.5174849881       -2.2592798781
  S         5.5717444727       14.3501596097       -1.8042762274
  C         5.4863816371       16.9682060044       -2.4220412332
  H        -3.2362944193       13.2032315174        9.0245840381
  H        -3.5871680158       12.6241822703       10.6937091783
  C        -4.8878996460       14.2215778719       10.0994382006
  H         6.1750004030       13.2093939747       12.4515922517
  H         6.8119682053       13.3820180418       14.0108200046
  C         6.8062384336       15.1135834444       12.7841051159
  S         0.4073051939        5.8776514597       15.0879063686
  N        -0.0587131467        6.2327340162       16.6249745259
  C        -0.5622558231        8.3061552471       17.8838572581
  H        -0.8848691454       10.4304695990       18.5547880200
  C         5.8771685005       14.9654232383       -3.4460890777
  N         5.8043545633       16.3129247771       -3.5768470171
  O         5.2663215043       18.2055520562       -2.3904242027
  H        -5.2362607474       14.1423782232       11.1078285659
  H        -4.7053886179       15.2726964904        9.7761994313
  C        -5.8883973415       13.4910372784        9.1319916663
  H         7.8038209723       15.0655555136       12.3783643956
  H         6.2122297190       15.5530052112       12.0306049962
  C         7.0630195157       16.1054522170       13.8940040010
  C        -0.9913469973        7.5794679160       19.0150847076
  S         6.3576138325       14.0851043513       -4.8377151666
  C         5.7534940080       17.0184688819       -4.8822921074
  H        -5.5243938753       13.6732932428        8.1076639657
  H        -5.7063241908       12.3646488196        9.2895507656
  C        -7.3542308525       13.9537267626        9.2149721661
  H         6.6875113080       15.7983549463       14.8471203063
  H         6.4121063073       16.9298151949       13.7102317127
  C         8.4481088819       16.7280362876       13.7429808797
  H        -0.6612682910        6.5400159743       19.0517167747
  C        -1.5886542419        7.9409200322       20.2412494666
  H         6.6101260164       16.6648911270       -5.4911458569
  H         5.9583041326       18.0964138502       -4.7610578280
  C         4.4033905567       16.8207810555       -5.5490420174
  H        -7.9202990460       13.6867555014        8.3838244072
  H        -7.4552461698       15.0160080385        9.2646754563
  C        -8.0209406411       13.3949742924       10.4907578534
  H         9.1683238084       15.9216024694       13.7778143408
  H         8.5240084899       17.2581894486       12.8213315492
  C         8.6903733072       17.7128050335       14.8438262713
  S        -2.3289090385        9.3866688952       20.5436277182
  C        -1.6732643141        6.9088296898       21.2512444337
  H         4.4800341837       15.8840870340       -6.0603743348
  H         4.3083821951       17.5540913272       -6.2669439030
  H         3.5685056870       16.8074566078       -4.8689371158
  H        -7.7453013306       14.0793262008       11.2586287169
  H        -9.0919447137       13.2035400098       10.3970590014
  H        -7.6990357759       12.4587998052       10.8309957885
  H         9.3586368054       17.1499454138       15.5822310589
  H         9.3124613827       18.5715652603       14.5889981593
  H         7.8457145378       18.0278037260       15.3739950134
  C        -2.6946021535        8.8294677494       22.1630909883
  N        -2.2893907779        7.5117796938       22.3696470366
  O        -1.1268042526        5.7717037647       21.2277434573
  S        -3.6542003597        9.7833794291       23.4301110778
  C        -2.3798688399        6.8148660349       23.6559038130
  H        -2.9603305759        5.9159677346       23.4020561954
  H        -2.8754204892        7.3110218625       24.5372048216
  C        -0.9773120701        6.5525835644       24.3254800813
  H        -0.6896981803        5.4915188984       24.3987823105
  H        -1.0093498135        6.8254678660       25.3538572264
  H        -0.2031470747        7.0964359434       23.8255198241
