352
i =
  H        -3.4057005778       14.8630899113       16.8456227500
  C        -3.0451607656       13.8028255056       16.7086162303
  H        -3.8636835706       13.0907031885       16.9028738308
  C        -1.9761004604       13.7372989680       17.7324894398
  C        -2.6994563777       13.5022576594       15.2225928955
  C        -2.5489416482       14.0049606456       19.1134025328
  H        -1.5177699387       12.7563559459       17.6664220702
  H        -1.1815113771       14.4749000297       17.4672987151
  H        -1.9965861713       12.6690222660       15.0986636395
  H        -3.5279176343       13.2927561994       14.6479475734
  H        -2.2314414658       14.3401430449       14.6929568393
  C        -2.1540416380       12.9274787117       20.1007028205
  H        -3.6334206505       14.0160538827       19.1087516229
  H        -2.3465445103       15.1130749925       19.2782151450
  C        -2.4444920894       13.2504511888       21.5591758241
  H        -2.6754480183       12.0402388643       19.7712205929
  H        -1.0874146730       12.8449504991       19.8995633584
  C        -1.3572863417       12.7069817043       22.5836398453
  H        -3.4587765106       12.9172972597       21.7474142685
  H        -2.4167099270       14.3358718451       21.7816494988
  C        -0.0928308091       13.6620217013       22.7228866180
  H        -1.8304181420       12.5629510127       23.5784451298
  H        -0.9689286484       11.8096875523       22.2233325016
  C         1.1220013109       13.0528247689       23.4274235223
  H         0.2721482911       14.0717498500       21.8256362978
  H        -0.3133632410       14.6026259813       23.2621128630
  C         1.4992425271       11.6204300780       22.8601782084
  C         0.7136334314       12.3538120051       24.6818497687
  C         2.3463682620       14.0482125100       23.5205784448
  C         1.3218472504       10.5603417184       23.7744440798
  C         2.0053500026       11.1508410019       21.6585186837
  C         0.8547419780       11.0072265892       24.9252094101
  C         0.3196442530       13.0181860525       25.8383991656
  H         2.4971571835       14.4970863777       22.5982130316
  H         2.1524928204       14.8449015336       24.2268845289
  C         3.6714194740       13.3659116645       23.8999622459
  S         1.5442830428        8.9751306519       23.0593138554
  C         2.0626531016        9.7885690548       21.5324583431
  H         2.3390690517       11.8679541640       20.9596812990
  C         0.5153878757       10.4423644225       26.0782291366
  H         0.0599646149       14.0366925950       25.8132898415
  C        -0.0108327878       12.4460255207       26.9702139277
  H         3.9736774273       12.6557595779       23.1581763641
  H         3.6147842555       12.7354690202       24.7888101842
  C         4.7478713368       14.4618632574       24.1093271944
  C         2.5791919100        9.0835342662       20.3322372204
  C         0.0890855216       11.1267753740       27.2134859924
  H         0.7096066726        9.4056433111       26.2716225220
  C        -0.5103057937       12.9006383068       28.2235724491
  H         5.5928050464       13.9315820475       24.5793452753
  H         4.3571729947       15.2614255984       24.8112099648
  C         5.3377436639       15.0789087312       22.8445986869
  C         2.5838109330        7.6521560459       20.1255295292
  C         2.9833581855        9.8323350537       19.1562222546
  C        -0.3646646256       10.4428534773       28.5002465678
  C        -0.6543694187       11.7742935938       29.0871674720
  S        -0.7340487895       14.4086132313       28.9698108884
  H         5.5452708407       16.0969461549       23.1572657215
  H         4.6666407584       15.0783007365       22.0836874352
  C         6.6677209833       14.4688551698       22.2954426002
  N         2.2774679438        6.7105219362       21.1360251760
  C         2.7791228131        7.0524614332       18.9056754137
  C         3.3149206182        9.1851954519       17.9545444819
  H         3.2575044666       10.8797089092       19.2116263044
  C         0.8267837870        9.7212571019       29.2148046156
  C        -1.5888680130        9.4883462200       28.3449530775
  C        -0.9701683206       12.2274274506       30.3540952732
  C        -1.0630424645       13.6025145898       30.4771030921
  H         7.2830060185       15.1877131207       21.7626586354
  H         7.3171462871       14.1513941657       23.1497413269
  C         6.4758793743       13.1838455640       21.3712527809
  S         2.1462732215        5.2738253890       20.4373452302
  N         2.7008137810        5.6479458083       18.9686289475
  C         3.1880465879        7.7131459044       17.7660978312
  H         3.5866817993        9.7853812378       17.0470237689
  H         1.0930381646        8.8539573662       28.6418685383
  H         0.5001367850        9.0994393141       30.0326362744
  C         2.0940582355       10.5120416918       29.4994001001
  H        -1.3510888051        8.6918563858       27.6821288852
  H        -1.8894892488        9.1348643560       29.3820032210
  C        -2.6894518212       10.3098269127       27.5947606869
  H        -1.1919951044       11.4949547422       31.1325695460
  C        -1.3462821225       14.3427674188       31.7063038769
  H         5.7223500147       12.6308899296       21.9014663915
  H         7.3350205736       12.5193523479       21.4647003530
  C         5.9654950198       13.4745163130       19.9222103058
  C         3.3498183556        7.0901451290       16.4783202521
  H         2.5493370380       10.9460777578       28.5583362153
  H         1.7409786584       11.2755741469       30.2093968144
  C         3.0948297026        9.6168798711       30.1946549234
  H        -2.2623730063       10.6486811578       26.5808913262
  H        -3.0681207486       11.1852957229       28.1750609934
  C        -4.0046449518        9.4880311650       27.2918449579
  C        -1.4820080477       15.7537144223       31.8145014334
  C        -1.5759546314       13.6152986891       32.9457034519
  H         5.4130902614       12.5436583864       19.5670132382
  H         5.2318504429       14.3110513514       19.9161778752
  C         7.1309737256       13.6514165887       18.8860899369
  H         3.3805263635        6.0761356940       16.6119806156
  C         3.4991213094        7.5849215000       15.1895916351
  H         3.4080303134        8.6456658560       29.6631155596
  H         2.7401660398        9.3435108826       31.2093335680
  C         4.4284095911       10.2804152343       30.4501000181
  H        -3.7253416028        8.6831226047       26.5958111707
  H        -4.5127761849        9.0478532461       28.1788135759
  C        -5.0866670106       10.4094090016       26.7386826023
  N        -1.3717411928       16.6882710098       30.7638129285
  C        -1.7929404106       16.4391842734       32.9783659025
  C        -2.0825147598       14.2961824033       34.0621995440
  H        -1.5662976952       12.5161367475       33.0187148603
  H         7.5905245033       12.7173271792       18.5815390193
  H         6.6789766698       14.1396724624       18.0336102949
  H         7.9221758455       14.2281736420       19.3712735116
  S         3.6823241444        9.2723217273       14.6334021832
  C         3.6568971795        6.5135449602       14.1375438606
  H         4.3580296255       11.2558499104       29.8535725143
  H         4.3769504292       10.6702944158       31.5021224823
  C         5.6164235776        9.4122263982       30.2853810679
  H        -4.7932834993       11.1401222103       26.0172662592
  H        -5.3778036276       11.0828771305       27.5445627007
  C        -6.3548097333        9.6735627894       26.2003555939
  S        -1.2576829901       18.1539453571       31.3386698271
  N        -1.7359625462       17.8555213610       32.8519033646
  C        -2.1055986707       15.8033732990       34.1652505814
  H        -2.3343204645       13.7954683279       34.9789680418
  C         3.8739356052        8.4731795632       13.0330459066
  N         3.9879420761        7.1423873952       12.9764332506
  O         3.4696667664        5.3048964836       14.3037632221
  H         6.5606019942        9.9190071452       30.3282317917
  H         5.6712310982        8.8621993304       29.3251628662
  C         5.5759108775        8.2332753919       31.3043677756
  H        -6.0658557758        8.8991003244       25.4738465738
  H        -6.8129260839        9.2978728886       27.0456371059
  C        -7.1552084625       10.7382694495       25.4341057907
  C        -2.4264476298       16.5585651493       35.2760329892
  S         4.0232819279        9.3848375905       11.5969336009
  C         3.8558206269        6.3558621204       11.7673417454
  H         6.5445931636        8.1779995794       31.7760842491
  H         4.9277971677        8.4782051766       32.2002623251
  C         5.3298324854        6.9018197946       30.6930550536
  H        -6.5329789916       11.4225652765       24.7634568043
  H        -7.4916623477       11.5156139050       26.1656459488
  C        -8.3592309645       10.1528423555       24.6678830027
  H        -2.4834808737       17.6161636141       35.0438140926
  C        -2.8444449623       16.2214754558       36.5149599358
  H         4.4255226248        6.8458982991       10.9702450553
  H         4.3988522906        5.4673238442       12.0396998669
  C         2.4629361375        5.9890760581       11.4151895685
  H         4.3837591475        6.8088148334       30.0441891329
  H         5.3393243383        6.2491991992       31.5806932427
  C         6.3982880413        6.4535834597       29.7687743772
  H        -8.6132331082       10.8921462298       23.9132100984
  H        -8.0539074387        9.2484172505       24.1190656191
  C        -9.5496504064        9.9517607920       25.6618542004
  S        -3.1531381574       14.6606557969       37.1406579585
  C        -2.9977515464       17.3769295584       37.3835312399
  H         2.4727509657        5.7814692001       10.3249212374
  H         2.1445913283        5.1003147451       11.9431337947
  H         1.7020579940        6.8255755882       11.5389132589
  H         6.9012759399        7.2462761141       29.1813208289
  H         5.9388042667        5.8300205059       29.1119510727
  H         7.1958954222        6.0049061588       30.3846935985
  H        -9.2317065829        9.2365629877       26.4241113663
  H       -10.3889025649        9.4173662329       25.2493915612
  H        -9.9230536950       10.8389152350       26.1702403122
  C        -3.5318209661       15.5554524177       38.6436270628
  N        -3.4173964364       16.8594868291       38.5607334570
  O        -2.8267065488       18.5327953394       37.1019168444
  S        -4.0340719559       14.8040645505       40.1166363406
  C        -3.5024217953       17.6775719464       39.7804257849
  H        -4.0473476072       18.6037394346       39.4315558789
  H        -4.0634837898       17.2747528759       40.6186340091
  C        -2.1608268834       17.9614943003       40.4078656497
  H        -1.8942941734       17.1043944998       40.9910021292
  H        -1.3963919005       18.2089008192       39.6391819501
  H        -2.1722122537       18.6944081631       41.1873125708
  H         7.6394599906       11.2081835156        3.8492718762
  C         8.1208022576       10.2568632209        3.9302372008
  H         7.3659005075        9.4835301323        3.9326373686
  C         8.8641392017       10.2240449644        5.2357321166
  C         9.0784099318       10.1230244521        2.7754235854
  C         7.9153903662       10.5372657403        6.3619127630
  H         9.2480282442        9.2459293886        5.5422128537
  H         9.7591571253       10.8214295966        5.2459882942
  H         9.6847556394       10.9962035405        2.6609159387
  H         8.4777108885       10.0664351386        1.8410308479
  H         9.7936037385        9.2572734343        2.7842034280
  C         7.0347387288        9.3128676635        6.7427683040
  H         8.4368900831       10.9303870988        7.3010942838
  H         7.2838316419       11.3501521759        6.0269287405
  C         6.3941811311        9.3965048224        8.1419165443
  H         7.4171796519        8.2859215354        6.4590090021
  H         6.1776035142        9.2332042154        6.0427492352
  C         5.0967209295       10.4128665465        8.2779072922
  H         7.1535887523        9.6355971695        8.8567255365
  H         6.0711722306        8.3817713954        8.3659482361
  C         3.8555822754        9.8126213485        7.6446273402
  H         4.9548629842       10.6269854738        9.2970707511
  H         5.3314023993       11.3948115844        7.8401944602
  C         2.6839521401       10.8734464584        7.4573427189
  H         3.4287729732        9.0042970497        8.1490184814
  H         4.1602068080        9.4332942781        6.7031123117
  C         3.1838951840       12.1216778786        6.8537565725
  C         2.2771521926       11.5756614972        8.6894810351
  C         1.5686447926       10.2207522517        6.5944727612
  C         2.9680513628       13.2410521625        7.6265505272
  C         3.8888176300       12.4435878340        5.7501433401
  C         2.3515851803       12.9368129537        8.8284844971
  C         1.8022851032       10.9544262238        9.8267331804
  H         1.9777410752        9.8609989547        5.6461690057
  H         1.1833048202        9.3834211452        7.2212096845
  C         0.2848781963       11.0484034750        6.3216716404
  S         3.4844276438       14.7119506525        6.8828802035
  C         3.9760448660       13.8051937692        5.5342547954
  H         4.2069662224       11.5835248249        5.1194493213
  C         1.9563379232       13.5689466497        9.9816441767
  H         1.6390670672        9.9123491423        9.7054615185
  C         1.4159302407       11.5594264347       10.9673137792
  H         0.5810898257       11.9636614816        5.8147731690
  H        -0.1342027300       11.3449062396        7.3243599440
  C        -0.8327491241       10.4115876688        5.4838624070
  C         4.4393613980       14.3788619196        4.2628558487
  C         1.4526847103       12.9327338928       11.1078549098
  H         2.0429848948       14.6335389806        9.9488600829
  C         1.0025058629       11.1295119073       12.2434842507
  H        -1.6820848853       11.0979876035        5.6005889594
  H        -1.1466647767        9.3722324002        5.8544691149
  C        -0.4253714262        9.9946590593        4.0794152728
  C         4.5283698101       15.8011736913        3.9383418845
  C         4.8062219851       13.4875445488        3.0678179435
  C         1.0542284382       13.5767975962       12.3482149536
  C         0.8649776405       12.2423390440       13.0593513460
  S         0.7849651359        9.6286195221       12.9454775266
  H         0.2346401796        9.1599585259        4.1710877324
  H         0.2971580788       10.8088879137        3.8018182116
  C        -1.5715226745        9.8627147513        3.1086815406
  N         4.1722093095       16.8105894173        4.7655733920
  C         4.8213963021       16.2474833147        2.6363897784
  C         5.0966385970       14.0010765671        1.7747182945
  H         4.9701525462       12.4831054176        3.3181618012
  C        -0.2370450036       14.3779845615       12.1367133975
  C         2.1873455972       14.3407542772       13.0729054122
  C         0.6004344675       11.8351484390       14.3321222893
  C         0.5061410654       10.4383892187       14.4260131688
  H        -2.0546973809        8.9287628065        3.2101797331
  H        -2.4396151528       10.5364783430        3.1458776911
  C        -1.0731703531       10.0306172644        1.6240882782
  S         4.3921509635       18.2360006079        3.9897307528
  N         4.7519441608       17.6202725371        2.5608607159
  C         4.9697440827       15.4662533927        1.4832499934
  H         5.5331807645       13.2985345128        1.0166429367
  H        -0.0465839050       15.2398466649       11.4560948929
  H        -0.4557155690       14.8359926060       13.0925751743
  C        -1.4654111273       13.4659393414       11.6602843113
  H         2.4383734529       15.1520000497       12.4192480429
  H         1.8052567318       14.7800532752       14.0248072128
  C         3.4375673397       13.4258908213       13.3693059581
  H         0.4738292525       12.6145696539       15.0165572329
  C         0.3635845632        9.6649018169       15.7015317535
  H        -0.3670343489        9.2986088142        1.3823848280
  H        -0.6574917319       11.0078458336        1.4328128112
  C        -2.2077028717        9.8516686607        0.5991449165
  C         5.2810734036       16.0547924586        0.2095907149
  H        -1.0790190924       12.9546753204       10.7728263241
  H        -1.7288930056       12.7604275371       12.3893452416
  C        -2.6229267777       14.3788159847       11.2679194611
  H         3.7507040718       12.9190946835       12.4614636110
  H         3.3118870987       12.6686426242       14.0871697840
  C         4.6272136737       14.2516239171       13.8956574752
  C         0.1978278986        8.2369379513       15.7861399568
  C         0.2175931891       10.4403369405       16.9933883278
  H        -2.7772015765        8.8621583555        0.6575158667
  H        -2.9251264857       10.6566469384        0.7162068085
  C        -1.6671436303        9.8889724512       -0.7933448482
  H         5.3170865756       17.1376445862        0.1839266578
  C         5.5630846072       15.5128794837       -1.0527328001
  H        -2.2430567868       15.2289127397       10.6899160639
  H        -3.1663406459       14.6321857452       12.1929318346
  C        -3.5172019044       13.8783161970       10.1892126325
  H         4.7719717628       15.0166878785       13.1082655896
  H         4.3181300378       14.7115283974       14.8267082068
  C         5.8239308917       13.3152897432       14.2839794529
  N         0.4332040006        7.2917739780       14.8007944698
  C        -0.1248428009        7.6113669816       17.0041638150
  C        -0.1384918416        9.8128276203       18.1497990462
  H         0.4491536733       11.5313554175       16.9923254714
  H        -1.0238295747       10.7551478557       -1.0051527857
  H        -2.5416968113        9.8698503533       -1.5574035697
  H        -1.0532117578        9.0016522839       -1.0759184586
  S         5.7885025106       13.8796920198       -1.4840798589
  C         5.7559352407       16.5169072713       -2.1463610195
  H        -4.0823501929       14.7146332790        9.7454054268
  H        -3.0170902839       13.3961895311        9.3963573432
  C        -4.4837332119       12.8122390431       10.7640360218
  H         5.9950480264       12.5233878807       13.5493807803
  H         5.4997996111       12.6724469412       15.0770460826
  C         7.2158250166       13.7784451355       14.6257692506
  S         0.2011174989        5.7926527305       15.3905813360
  N        -0.1794322682        6.1642843669       16.8897648960
  C        -0.3211176425        8.3083434789       18.2091765412
  H        -0.1348238216       10.3852785919       19.0249057127
  C         6.0138721852       14.5286503667       -3.0777179042
  N         5.9853455686       15.8336530029       -3.2552142716
  O         5.4847817510       17.7129547385       -2.0546770443
  H        -3.9589426681       12.0397068624       11.2508373489
  H        -4.9445985149       13.2640660798       11.6797530696
  C        -5.5471432394       12.2738027491        9.8377997185
  H         7.4045297451       13.9758965035       15.6467365589
  H         7.9404035405       13.0279866747       14.4052406551
  C         7.6372195153       15.0931339994       13.8858779769
  C        -0.6006405363        7.5265429594       19.3250841815
  S         6.1932130316       13.4832867173       -4.5438674063
  C         5.9369811798       16.5270549663       -4.5286330364
  H        -4.9858900112       11.7914277845        9.0015651409
  H        -6.2537685619       11.5455519628       10.3143468356
  C        -6.4501763555       13.2786640822        9.1894096114
  H         7.2710935811       15.1996783649       12.8879684217
  H         8.7559989758       15.0889673877       13.6831556053
  C         7.3386643517       16.4522894691       14.5449493491
  H        -0.4299811059        6.4485137049       19.2631216366
  C        -1.1345843275        7.8530801264       20.5377500266
  H         6.4057467308       15.9964944912       -5.3334085889
  H         6.4250265685       17.4533576077       -4.5253389438
  C         4.5132380951       16.7119368866       -5.0251830939
  H        -7.0214884386       12.7479647421        8.4072809710
  H        -5.9430388418       13.9967865165        8.6875618772
  C        -7.4705968124       13.8459208237       10.1908417108
  H         7.0054969486       17.2410135965       13.8960628861
  H         6.4872823388       16.1673562151       15.2192096482
  C         8.4261708157       16.9750162683       15.4857383341
  S        -1.7616765546        9.3397594849       21.0092444805
  C        -1.2337931692        6.7484519262       21.5819124899
  H         4.3503764576       17.6864071902       -5.5699416455
  H         3.8028918449       16.8348336842       -4.2306337597
  H         4.1379547841       15.9868618421       -5.8014240843
  H        -7.2380879176       14.8931562453       10.3722682007
  H        -8.4276228015       13.8945413480        9.7972755605
  H        -7.3518679762       13.1912064807       11.0819733043
  H         8.2975820409       16.5006776755       16.4456533741
  H         9.4201494547       16.7217941305       15.0491649067
  H         8.5187236515       18.0845931286       15.5828807072
  C        -2.2704595458        8.5601317983       22.5702649989
  N        -1.9550027450        7.2380034875       22.6559579972
  O        -0.7732116122        5.6302150240       21.4835891362
  S        -3.1530453184        9.3790953325       23.8349861089
  C        -2.0527378230        6.5182054048       23.8751638662
  H        -2.1401018197        5.4607667838       23.6312064318
  H        -3.0044359421        6.6699709959       24.4339889483
  C        -0.9428217980        6.8928184623       24.8029176310
  H        -0.6285651446        7.9348832799       24.5677362257
  H        -0.0360139993        6.2611194265       24.6097690340
  H        -1.2404105076        6.9312518453       25.8550191287
