352
i =
  H        -3.7492710621       14.1996859456       15.9791628578
  C        -3.4935620016       13.1503045385       16.1082615737
  H        -4.4243767116       12.7705710959       16.4813602927
  C        -2.4078251458       12.9941175178       17.1736219930
  C        -3.2105124253       12.6051588276       14.7248390861
  C        -2.8813409485       13.6354613988       18.5301714043
  H        -2.2191036238       11.9454984430       17.4489542936
  H        -1.5371478245       13.4111512230       16.8541700416
  H        -2.9517139362       13.3895072154       14.0053754065
  H        -2.2578562667       12.0173303450       14.6918775825
  H        -4.0869661319       12.0640970011       14.4166665650
  C        -1.9805104069       13.2042838253       19.7062872233
  H        -3.9331664421       13.4880074905       18.6929577232
  H        -2.6526996865       14.6921252832       18.5388333246
  C        -2.4246760427       13.7339944957       21.1462667445
  H        -2.0583263249       12.0551577583       19.7586840968
  H        -0.9587815602       13.4516148037       19.5291741755
  C        -1.6345592885       13.0364656490       22.2569806560
  H        -3.5102086512       13.7608103122       21.2388546417
  H        -2.0949465777       14.7607289236       21.1240627470
  C        -0.3615435591       13.7871715675       22.6444802267
  H        -2.2681445241       12.9910425941       23.1386485966
  H        -1.3402359193       12.0583276307       21.8979665468
  C         0.7639205675       12.9744713482       23.2525035076
  H         0.0531968707       14.2460526306       21.7608792959
  H        -0.6252613653       14.5105518411       23.4030540148
  C         1.1013036934       11.6987766128       22.4707642563
  C         0.3591178216       12.2375902985       24.4850578851
  C         2.0393704746       13.8708739745       23.2497610901
  C         0.8749007852       10.5609269973       23.2740748589
  C         1.6664778840       11.3631370235       21.2412489540
  C         0.4093541728       10.8881846105       24.5273143594
  C         0.0105533880       12.8749413218       25.6556864417
  H         2.2871923830       14.1041817043       22.1912622528
  H         1.9200321780       14.7755849846       23.9086625697
  C         3.1739022415       13.1631165270       23.9448479930
  S         1.2939641668        9.0868863502       22.6060039029
  C         1.7235372891        9.9793881043       21.1245768933
  H         1.7883709594       12.2114475829       20.5951417760
  C         0.1033152558       10.3348184697       25.7564799386
  H         0.1293883599       13.9610156708       25.5943867258
  C        -0.3261093452       12.3328594974       26.8904611347
  H         3.4404121000       12.2364824041       23.3985987278
  H         2.7920531107       12.7413291195       24.8524741549
  C         4.4826576263       14.0056517939       24.3050676951
  C         2.1273604218        9.3222772789       19.8202633657
  C        -0.2760373744       11.0128406405       27.0054158437
  H         0.2024457249        9.2746402700       25.8483382438
  C        -0.6903522450       12.7736235379       28.1813474685
  H         5.0936600969       13.4861771082       25.0096812677
  H         4.1272760444       14.8030969899       24.9148837180
  C         5.3262802609       14.4973892097       23.1964366467
  C         2.2440734948        7.9419267065       19.6437809276
  C         2.5279077556       10.1075813465       18.6236849522
  C        -0.6544944210       10.3006915326       28.2751784013
  C        -0.9794359601       11.6474493400       28.9987438357
  S        -0.8726201705       14.3076923831       28.8049314168
  H         6.1293909307       15.1252042575       23.5710178888
  H         4.6543297054       15.1516290491       22.6934686700
  C         5.8731339667       13.4210139765       22.2235285594
  N         1.7379852541        6.9814189962       20.5620794131
  C         2.6679713797        7.3541775034       18.4383494062
  C         2.7871992256        9.5801456103       17.3808699627
  H         2.4856760180       11.2173486796       18.7505431680
  C         0.5690832768        9.5043776436       28.9411516973
  C        -1.8961993286        9.5441116970       28.0051354173
  C        -1.1620876628       12.1319009273       30.3189616926
  C        -1.2499660535       13.5329501104       30.3635158599
  H         6.8594239445       13.5430066871       22.3056822563
  H         5.6346942090       12.3140888704       22.4054316336
  C         5.4080534389       13.7219096465       20.8319880276
  S         2.0345835148        5.5377743945       19.9293767362
  N         2.7176441510        5.9601460532       18.5053468604
  C         2.9384406030        8.0972534911       17.2283440479
  H         2.8144772396       10.1799673838       16.5379623017
  H         0.9992530349        8.8001987353       28.3005446629
  H         0.1233239783        8.8539648869       29.6505570778
  C         1.7352121541       10.3601469049       29.5803533416
  H        -1.6473851230        8.8233541184       27.2319363303
  H        -2.3114930845        9.0395285721       28.9111787936
  C        -3.0266038593       10.2985448507       27.4576621792
  H        -1.3949934594       11.5076712691       31.1115987603
  C        -1.5222726220       14.2798355299       31.6123440443
  H         5.6421233164       14.6996641295       20.6547799869
  H         4.3263782103       13.6973209632       20.8469986404
  C         5.9545102472       12.7983174080       19.7013365942
  C         3.1827554005        7.3708724384       16.0401653562
  H         2.0406152175       11.1860405729       28.9263275781
  H         1.2916470760       10.8421917914       30.4437510751
  C         2.9221392282        9.4394291212       30.0340818504
  H        -2.8329160697       10.7490383959       26.4882877957
  H        -3.2397298610       11.1513876608       28.0695551800
  C        -4.2359152464        9.3516281352       27.2122791289
  C        -1.5521579794       15.6759109710       31.7546281091
  C        -1.7087612754       13.5721939527       32.8790689582
  H         6.9023465803       12.3449807226       19.9643453058
  H         5.3374119802       11.9055417527       19.4966408308
  C         6.2247362213       13.5302371889       18.3698630696
  H         3.1797521044        6.2847587730       16.1216036256
  C         3.3896901407        7.8936961677       14.7672711218
  H         3.4672942199        9.1615796306       29.0569790799
  H         2.6713825182        8.4396978030       30.3509298015
  C         3.9111046927       10.0889218154       31.0013229349
  H        -3.8397969384        8.7027879020       26.4356963894
  H        -4.4082104721        8.8417384310       28.2149505481
  C        -5.4308476396       10.2127676458       26.8515819882
  N        -1.3029754823       16.5702401565       30.7362778572
  C        -1.8006516128       16.2959671381       32.9630513162
  C        -1.9868424695       14.0748259876       34.1184467731
  H        -1.5236627272       12.4646893911       32.8669875987
  H         5.2969453820       13.8939168188       17.9812229764
  H         6.9300135934       14.4169623395       18.3725256980
  H         6.5886073961       12.7626701394       17.6714497989
  S         3.8185514760        9.5123188460       14.3446563095
  C         3.3944752787        6.9308353638       13.6936773255
  H         3.7626203641       11.1565342122       30.8992082305
  H         3.6219838953        9.8184632255       32.0655481864
  C         5.3521278274        9.6855337022       30.5847652302
  H        -4.9223460571       10.9269020486       26.1426430081
  H        -5.8723480172       10.6785777057       27.7797242355
  C        -6.4306590123        9.4836680612       25.9359736781
  S        -1.4108774179       18.0661375992       31.3658311078
  N        -1.8985271701       17.7306405973       32.8686381741
  C        -2.0482195220       15.5676267479       34.1275468896
  H        -2.1191049931       13.3639378751       34.9060154415
  C         3.8928581670        8.9066190646       12.6973749122
  N         3.7939267044        7.5419134983       12.5615586516
  O         3.2128925465        5.6622224911       13.8170853084
  H         5.9983483485       10.4098491757       31.1055649497
  H         5.4471473757        9.7113550444       29.5417600923
  C         5.7658600852        8.2447588996       31.0278575822
  H        -5.9737455106        8.8453467839       25.2195013158
  H        -7.2074634673        9.0040166738       26.5157058427
  C        -7.3100225877       10.4769662837       25.1708464614
  C        -2.4125979821       16.2831189926       35.2874053529
  S         4.2155907289        9.8708074302       11.2330171388
  C         3.9106504381        6.9268054147       11.2767767315
  H         6.1628192884        8.3261676831       31.9792142833
  H         4.8562463238        7.6772382360       31.2165321522
  C         6.7490478322        7.4389580696       30.1932959033
  H        -6.7444023552       11.0304477465       24.3785330794
  H        -7.5854999523       11.1647531367       25.9590497557
  C        -8.6193805538        9.7441916415       24.6093658455
  H        -2.4477738763       17.3263466847       35.0764480705
  C        -2.7978477594       15.9757065132       36.5423553612
  H         4.6491462903        7.3854813877       10.6364627242
  H         4.2286263311        5.8519253458       11.4747625131
  C         2.4834384446        6.8608754334       10.6712101799
  H         7.3835036364        6.7829525566       30.8400439023
  H         7.4546496320        8.0170271458       29.6051010715
  C         5.8910697734        6.5757433224       29.2636151450
  H        -9.0623160872       10.3466191685       23.7693260993
  H        -8.3526360925        8.7074533101       24.3068663814
  C        -9.8013918746        9.6849055232       25.5916095304
  S        -3.0496498035       14.4437168124       37.2202172144
  C        -3.0129917328       17.0937197483       37.5134806028
  H         2.5705126853        6.7255414748        9.5989243049
  H         1.9194877101        6.0134728621       11.0098525091
  H         1.9592691631        7.7653118318       10.8272778829
  H         6.4555133331        6.1937038294       28.4619225419
  H         5.0372182950        7.1693955530       28.8913761443
  H         5.4615649414        5.6756614124       29.7502239590
  H       -10.2041073057       10.7094854156       25.6101699496
  H        -9.4855325025        9.3181041877       26.5812426832
  H       -10.5971140406        9.0813674319       25.1366471725
  C        -3.3532860767       15.2339804738       38.7807900796
  N        -3.2683848332       16.5591294261       38.7423777458
  O        -2.9127520303       18.3151063061       37.2929175859
  S        -3.8494382665       14.4215488519       40.2503722866
  C        -3.4965953198       17.3765350851       39.8813123032
  H        -3.9135391898       18.3605787125       39.5475649045
  H        -4.3065005652       16.9192776411       40.4999659878
  C        -2.3268969487       17.4940829536       40.7569862184
  H        -1.5183104656       17.4888035691       40.1024499342
  H        -2.3169244161       18.4660931727       41.1105784384
  H        -2.3023688578       16.6815838352       41.5011650426
  H         7.8671182544       11.5567697012        3.4246483162
  C         8.4813751455       10.6762835382        3.7000006756
  H         7.7495752948        9.8005091329        3.6929897638
  C         9.1259348237       10.8768941433        5.0786894660
  C         9.3171531331       10.3290082948        2.4830831777
  C         8.0152022679       11.1250744045        6.1643978146
  H         9.6104273969        9.9033009839        5.2982833221
  H         9.8651554674       11.6852254187        5.1297867354
  H         9.9599016695       11.1350049013        2.2378662479
  H         8.7155641894       10.1919098711        1.5827058932
  H         9.8813358589        9.3738034323        2.5902450921
  C         7.1803329306        9.8940957019        6.4848621703
  H         8.4841837509       11.3669240990        7.0781725540
  H         7.4950816853       12.0250758710        6.0112416965
  C         6.3660861923        9.9949253301        7.7500152978
  H         7.7818620944        9.0472735436        6.6175726583
  H         6.4596878042        9.8172800511        5.6769126585
  C         5.0456054534       10.8118926905        7.6653973896
  H         7.0159603745       10.5069679489        8.4214359424
  H         6.1548643086        9.0641059353        8.2997626799
  C         3.8171990641       10.0881584639        7.1179928706
  H         4.7537415332       11.1435703349        8.6826305718
  H         5.1752623754       11.7402250195        7.1235851477
  C         2.5963237910       10.8824152600        6.9971367799
  H         3.5232610580        9.2037921000        7.7198370400
  H         4.1191083409        9.7882725909        6.1231932579
  C         2.8846347513       12.2144151372        6.3593204178
  C         2.0826870768       11.5989969332        8.2261943587
  C         1.5942932981       10.0137188575        6.2583816271
  C         2.5933321680       13.3016401350        7.1280232824
  C         3.4153757874       12.5865631648        5.1501635904
  C         2.0718688824       12.9320075372        8.3364690685
  C         1.7100504410       10.9533073914        9.4425303765
  H         1.9300767630        9.8280228255        5.2116975177
  H         1.4625043642        9.0966297102        6.8150765251
  C         0.1940026827       10.6939685448        6.0753884656
  S         3.1394745790       14.7675961168        6.4942857145
  C         3.6188171995       13.9298695682        5.0378248898
  H         3.7338167713       11.8145195897        4.4192138626
  C         1.6673593964       13.5191010720        9.5091997484
  H         1.8154529577        9.8282875859        9.4729510744
  C         1.3720479065       11.5244364846       10.6261353901
  H         0.2995838346       11.6559012861        5.8291949582
  H        -0.3196605789       10.6481344952        7.0009341145
  C        -0.7198193791        9.9884937211        5.0571188924
  C         4.1075249413       14.6456907807        3.7606256318
  C         1.2912668720       12.8901482959       10.7185036773
  H         1.6963112421       14.5727200579        9.4951435871
  C         0.9782548299       11.1294641165       11.8841565400
  H        -1.7429833101       10.1876151228        5.2593229498
  H        -0.5884478838        8.9307660883        5.0710256863
  C        -0.4313656922       10.4161466393        3.6987627259
  C         4.1613715340       16.0479176880        3.4542183804
  C         4.4868554804       13.7855761427        2.5809771135
  C         0.9001981468       13.5508687031       11.9573594924
  C         0.6808953599       12.1859294454       12.7156885230
  S         0.6489664871        9.5659639776       12.5695898193
  H         0.3800635214       11.1484330951        3.6989468606
  H        -1.3380774610       10.8517199162        3.1901610800
  C         0.0754912530        9.2243375122        2.8140981376
  N         3.9206255488       17.0424332509        4.3622012553
  C         4.3979085238       16.5416697197        2.1576166019
  C         4.6274441527       14.3477200102        1.2875705729
  H         4.7118024061       12.7466485673        2.8230389205
  C        -0.4670603891       14.2270354764       11.9234690755
  C         2.0049663993       14.4419933078       12.6627169916
  C         0.1703291104       11.7129736681       13.9680828169
  C         0.2315309197       10.3206692917       14.0972420088
  H         0.9313594700        8.7695947507        3.3268850548
  H        -0.7437030399        8.5634172927        2.7379899609
  C         0.4630801818        9.6567397423        1.3739915867
  S         4.0497317068       18.4903485358        3.6214455830
  N         4.3585756113       17.9217717709        2.1725123393
  C         4.5031214273       15.7726755201        1.0088442089
  H         4.9666841567       13.6972754663        0.5017384140
  H        -0.3449007556       15.2296351149       11.4618116818
  H        -0.7713259996       14.4625412535       12.9079844438
  C        -1.6142458987       13.5040607493       11.1778575014
  H         2.1316791113       15.4041046247       12.1104984454
  H         1.5856676966       14.8729163542       13.5579672029
  C         3.2148051500       13.6299329357       13.1019982562
  H        -0.2533337902       12.4316235980       14.6990265366
  C        -0.1459397914        9.5201115633       15.3418417579
  H         1.2572345764        8.9693398735        1.0288270147
  H         0.9047460246       10.6095067350        1.4147205554
  C        -0.7060202263        9.6291205385        0.4272086647
  C         4.8082110909       16.4687204852       -0.2176786446
  H        -1.2286814679       13.0666864392       10.2798094277
  H        -1.9192705884       12.6850471435       11.8108912501
  C        -2.8361469755       14.3454255741       10.8753514166
  H         3.5603578661       13.0363559776       12.2522840870
  H         2.8889858390       12.8500332475       13.8660650320
  C         4.1877431426       14.4240969536       13.9546013161
  C        -0.1537096222        8.0820655563       15.4774678369
  C        -0.5073674444       10.2276096782       16.5536616579
  H        -1.2362167722        8.7457652225        0.5178378465
  H        -1.3024256043       10.4489303350        0.8720498817
  C        -0.2080350700        9.8382857627       -0.9595429575
  H         4.6908661035       17.5365971859       -0.1992476578
  C         5.1054368572       15.9754500683       -1.4633244498
  H        -2.8134150087       14.4188426448        9.7961354795
  H        -2.7756257739       15.3499917207       11.2668912712
  C        -4.1298892985       13.6572165121       11.2649971045
  H         4.5594377718       15.3132318857       13.4874045156
  H         3.7028048992       14.7867762041       14.8655205626
  C         5.4194843073       13.5416103503       14.3347399747
  N         0.1313682927        7.2427644155       14.4251240451
  C        -0.4367897770        7.4556036446       16.6635587280
  C        -0.8238162607        9.5754882629       17.7582648396
  H        -0.5975529233       11.3031123586       16.5209190942
  H         0.7437721442        9.4645430998       -1.0527144872
  H        -0.3105935147       10.8271454716       -1.2534859137
  H        -0.7991936581        9.2954354044       -1.6593133349
  S         5.4363916934       14.3725768831       -1.9322698686
  C         5.3982290606       16.9817842413       -2.5610458385
  H        -3.9890093196       12.6021475691       11.0896422334
  H        -4.2436708725       13.7359050256       12.2984306423
  C        -5.3830249523       14.1173085559       10.6581382968
  H         5.8390264616       13.1100945412       13.4027964242
  H         5.0037427899       12.8050585867       14.9900257640
  C         6.3334815902       14.5014479964       14.9856304759
  S         0.0804824539        5.7296806041       14.9602158966
  N        -0.4338050429        6.0655753984       16.4663304661
  C        -0.8742589070        8.1200669470       17.8734546892
  H        -1.0422765005       10.1970083069       18.6262671674
  C         5.8047368942       15.0098076548       -3.5133327563
  N         5.7959480317       16.3523218940       -3.6967039279
  O         5.3354116726       18.1981740111       -2.3229381660
  H        -6.0371282293       14.4321052410       11.4976880205
  H        -5.1737486055       14.9597561468       10.0401908195
  C        -5.8931022884       12.9931225926        9.6508826147
  H         5.7673261606       15.3116882749       15.4745832881
  H         6.9732532113       14.0273763516       15.7215577757
  C         7.4158929820       15.0662380982       14.0551791795
  C        -1.2286303062        7.4656484068       19.1069453408
  S         6.4534690337       13.9822791661       -4.8233471015
  C         6.0552352424       17.1446040895       -4.9293261401
  H        -5.1341238113       12.6265615534        9.0342685848
  H        -6.2132934810       12.1592629919       10.2674002652
  C        -7.0650878779       13.5570830580        8.8432767412
  H         7.2669894927       15.1456754456       12.9889017662
  H         8.2104040318       14.3005740687       14.1663577789
  C         8.0139017105       16.3290950103       14.5596889094
  H        -0.7647381171        6.4962692291       19.1886560435
  C        -1.7324831137        7.9280177461       20.3150526026
  H         7.0177418292       16.8047715817       -5.3259988918
  H         6.1967109876       18.1573577560       -4.5908011538
  C         4.8747805803       17.1129371171       -5.8835987367
  H        -7.1759387367       12.8510291818        7.9873248948
  H        -6.7603332344       14.4428737495        8.3174301754
  C        -8.4189238332       13.6703912741        9.6377649885
  H         8.0997569204       16.3309152012       15.6811334366
  H         9.0926696654       16.4153897606       14.3927213165
  C         7.2147765377       17.5839473411       14.1270575448
  S        -2.2346557830        9.5215257666       20.6985658337
  C        -1.7668606673        6.9445391316       21.4103342253
  H         4.4680459576       18.1499922640       -5.9898126190
  H         4.2067397593       16.3754789730       -5.4688681248
  H         5.2676681536       16.8066189683       -6.8439333624
  H        -8.1856273265       14.1481642756       10.5391931598
  H        -9.0998038761       14.3111568740        9.1318347654
  H        -8.7714809756       12.7486578279        9.9222022401
  H         6.2438576670       17.6019566679       14.6085280197
  H         7.6816561277       18.5368031875       14.4217147668
  H         7.1516359456       17.6395395065       13.0438420017
  C        -2.6380855464        8.7884187185       22.2518543752
  N        -2.4230372114        7.5222563071       22.3912704613
  O        -1.3358394423        5.7684329177       21.3201097241
  S        -3.6298905703        9.6402262701       23.4782574684
  C        -2.6901957882        6.7618535065       23.5719021097
  H        -2.7898077178        5.7224596224       23.3385142864
  H        -3.5536239032        7.0638977679       24.1127408764
  C        -1.4733324242        6.7888415897       24.4643600771
  H        -1.1889693903        7.8607748542       24.5528349997
  H        -0.6439281099        6.3384737740       23.8961882983
  H        -1.6139233960        6.2458908696       25.4206195576
