352
i =
  H        -3.8420259630       14.5117417861       16.6122970022
  C        -3.2207613750       13.6112573489       16.6873827102
  H        -3.7369671298       12.9502882708       17.3081601343
  C        -1.7849757335       13.8486866322       17.2570028324
  C        -3.0900202511       13.1974366907       15.2723114455
  C        -1.9462044318       14.3602590539       18.6562231218
  H        -1.2744505365       12.8670726779       17.3691049459
  H        -1.1802930151       14.5115858536       16.5788215296
  H        -2.4049968136       12.3988366622       14.9767260832
  H        -4.1314696444       12.9323205118       14.8429305584
  H        -2.8099701803       14.0933065881       14.5628613627
  C        -2.5737833191       13.2976242285       19.5556277719
  H        -2.5329427298       15.2902269409       18.5556739575
  H        -0.9367861928       14.5819032877       19.0064403743
  C        -2.1776062922       13.5068402794       20.9996703382
  H        -3.7268630530       13.3265390785       19.5599618460
  H        -2.2594516096       12.3223259523       19.2073001687
  C        -0.9547362815       12.8020279363       21.5846652281
  H        -3.0651586485       13.1254576262       21.5537934013
  H        -2.1100141155       14.5883412806       21.1751128138
  C         0.0187441040       13.7458532836       22.2622780504
  H        -1.3702658553       12.1894266862       22.3226398388
  H        -0.4369417076       12.1082132102       20.9176474756
  C         1.2594518955       13.0785235374       23.0206279808
  H         0.4189526694       14.3544027963       21.4255542433
  H        -0.4731913015       14.3582317450       23.0195064045
  C         1.7638626857       11.8028634364       22.4638121482
  C         0.8407648411       12.4437492808       24.2678030660
  C         2.4010838341       14.0676644391       23.2525516291
  C         1.5608815315       10.7038591945       23.2666042908
  C         2.4064273812       11.3686704515       21.2947481975
  C         0.9721894905       11.0660624492       24.4514522272
  C         0.2273642111       13.1260763279       25.3645781620
  H         2.5192455296       14.6641382560       22.3402078366
  H         2.1469121570       14.7371178039       24.0293097981
  C         3.7341261758       13.3130985647       23.5633507000
  S         2.0623963368        9.1559233132       22.5814540735
  C         2.3686329134       10.0212425304       21.1564640072
  H         2.6747479178       12.1604387469       20.5546278460
  C         0.5297576739       10.4836148101       25.5942560365
  H        -0.0440236660       14.1768648474       25.2311945592
  C        -0.1476689472       12.4726366221       26.5415375879
  H         4.1685314029       12.8131541543       22.7176270658
  H         3.5743876476       12.4804026981       24.3275443374
  C         4.8297742045       14.2434942078       24.0787688976
  C         2.7219517246        9.2641451840       19.9183284180
  C        -0.0502080984       11.1153343179       26.7036029592
  H         0.7929851457        9.5083120124       25.6984321885
  C        -0.5182265881       12.9312539140       27.7823621466
  H         5.6093530148       13.6870432571       24.6482004669
  H         4.4487744634       14.9598926281       24.8142525894
  C         5.6370295750       15.0845183330       23.0297530638
  C         2.7313338696        7.8469708413       19.6990254939
  C         3.2178830913       10.0446589244       18.7987793265
  C        -0.4167684403       10.4308770433       28.0094686867
  C        -0.6954853434       11.8628881190       28.6279300147
  S        -0.7067532983       14.4755110682       28.5428752145
  H         6.2079176344       15.8221725505       23.6714947306
  H         4.8690832175       15.5676478019       22.3854146405
  C         6.4854347541       14.0532065155       22.1798547677
  N         2.6246004282        6.9498489165       20.6999761862
  C         3.1266518235        7.2392604066       18.5444632354
  C         3.5686951562        9.4061860997       17.6330523117
  H         3.2890971945       11.1388558489       18.9452746369
  C         0.6953024519        9.6602001453       28.7381358228
  C        -1.7119811090        9.6580177551       27.8013881056
  C        -1.0596195104       12.3092034535       29.9248343487
  C        -1.1170910243       13.6720179033       29.9877598583
  H         7.5663234012       14.3123378777       22.3123758349
  H         6.3767181172       13.0548106096       22.5205405072
  C         6.0718054966       14.1002092552       20.7413181936
  S         2.5412432369        5.4466599600       20.0139089773
  N         2.9128251286        5.8737522057       18.5197150513
  C         3.4434181663        7.9844628717       17.4183353064
  H         3.9792919223       10.0128019394       16.8461231053
  H         1.0047523148        8.8730469932       28.0602637202
  H         0.3553202753        9.1848685898       29.6931194701
  C         1.9212967306       10.5176899701       29.0768617477
  H        -1.4990148102        8.9323285496       26.9179280382
  H        -1.8975124204        9.1520031050       28.7623553185
  C        -2.8340994749       10.5216418885       27.3226950551
  H        -1.2192249364       11.6481711272       30.6595539444
  C        -1.3673962798       14.4416070039       31.2541081824
  H         6.2597614866       15.1125211256       20.3628914698
  H         5.0723923667       13.8967871058       20.7548124763
  C         6.7072206055       13.1246046927       19.8207262184
  C         3.4220779511        7.2969608895       16.1579711896
  H         2.2334053387       11.0151572228       28.1510661193
  H         1.5458681467       11.4211224096       29.5986139585
  C         3.0798272133        9.7538941073       29.6945725765
  H        -2.5572940677       10.9896968533       26.4293113371
  H        -2.9883823493       11.2696672980       27.9962701105
  C        -4.0808474753        9.7065349114       27.1433487301
  C        -1.3983639822       15.8698095548       31.4700481261
  C        -1.5198012385       13.7303958760       32.4897849288
  H         7.7480832721       12.9909174781       20.0524953904
  H         6.2238702736       12.1720487218       19.8144352584
  C         6.6591654186       13.7800183303       18.3724439974
  H         3.4493264141        6.1880458117       16.2961951059
  C         3.7604111488        7.6743893118       14.8885912236
  H         3.4194548320        8.9638655761       29.0367066177
  H         2.7869447437        9.1928911398       30.5795758467
  C         4.1838685728       10.5436777642       30.3024874073
  H        -3.9049122246        8.9311717693       26.3736623592
  H        -4.3809694084        9.1925889360       28.0405012105
  C        -5.2309845861       10.6371363914       26.7838145663
  N        -1.1593359106       16.8569806561       30.4647144980
  C        -1.6418212097       16.4660966312       32.6523884632
  C        -1.8669124403       14.2659965309       33.7089220515
  H        -1.4970796703       12.7058150889       32.4494999307
  H         5.8504725652       14.4206707594       18.1821488724
  H         7.5386824827       14.4577283205       18.1741899556
  H         6.6674892831       13.0812961852       17.5186747501
  S         4.3258866740        9.1796923721       14.3383451693
  C         3.7335320831        6.6012136018       13.8304723141
  H         4.2230486156       11.5711133963       29.8552023896
  H         3.9216171553       10.5492164541       31.3366795011
  C         5.5527075419        9.9141260029       30.2144123588
  H        -4.8525499705       11.4153456962       26.0766079663
  H        -5.7628256788       11.0711207358       27.6891432381
  C        -6.2538084474        9.7981829808       26.1554632262
  S        -1.0626789066       18.3447560022       31.1206973970
  N        -1.6384047642       17.8933022153       32.5978971279
  C        -1.8245990923       15.7413819110       33.8689535045
  H        -2.0212826455       13.5986841950       34.5074342486
  C         4.2088836626        8.4623021665       12.7361594547
  N         4.1342448316        7.1017395494       12.6802259094
  O         3.3227021224        5.4787337582       14.0674901907
  H         6.2606426498       10.6466467531       30.5348372711
  H         5.6606764052        9.7204316380       29.1559065500
  C         5.9021771199        8.7700216606       31.1804518650
  H        -5.7991697094        9.0504601596       25.5624034427
  H        -6.8814136898        9.3765602643       26.9704929733
  C        -7.1712915814       10.6523439492       25.2810186518
  C        -2.1233461881       16.4835949086       35.0975716474
  S         4.6019386004        9.3121333496       11.1663079533
  C         4.1121793016        6.3032809776       11.4418998370
  H         6.6380826659        9.0479319132       31.8495168808
  H         4.9606266739        8.5199365840       31.7523505832
  C         6.3846828772        7.6095416321       30.3940091185
  H        -6.6992644667       11.0863228021       24.4143326265
  H        -7.4370895987       11.6254403298       25.8222368944
  C        -8.4670916756        9.9654206499       24.8561726943
  H        -1.9966641993       17.5698972987       34.8876308658
  C        -2.5485289472       16.0046179893       36.3105792994
  H         5.0306819278        6.5688993395       10.9155125425
  H         4.2382765094        5.2548331327       11.6703322576
  C         2.7931074113        6.5695801175       10.7031476555
  H         7.1059652562        8.0095920294       29.7103290102
  H         5.5985260821        7.2062745268       29.7617590767
  C         7.0270902400        6.4258342067       31.1627528540
  H        -8.8958470842       10.4423862199       24.0093718446
  H        -8.2598274075        8.9150713975       24.4798004488
  C        -9.5626366427        9.8681745528       25.9247803697
  S        -2.7751122303       14.4068519805       36.7313621413
  C        -2.9066066033       17.0261989368       37.3225729976
  H         2.8163546561        6.3981699180        9.6315569217
  H         1.9826160907        6.1009400297       11.1926095756
  H         2.6181077528        7.6306173452       10.8226153002
  H         6.3855856100        5.6944142855       31.7004269998
  H         7.5896194849        6.8509983652       32.0122594451
  H         7.6576757843        5.8264816769       30.5576816779
  H        -9.4800927861       10.7115118856       26.6340242287
  H        -9.3665637856        8.9246585158       26.4563360086
  H       -10.6344033056        9.8619558622       25.5719641945
  C        -3.4002153075       15.0538660932       38.2535761338
  N        -3.4195212255       16.4004752072       38.3844691681
  O        -2.7860778897       18.2502226109       37.1273332662
  S        -4.2495266859       14.1417336417       39.4868781617
  C        -3.7189941306       17.1198286889       39.6514837253
  H        -4.0462848867       18.1387351899       39.4528560048
  H        -4.5431407560       16.6412477378       40.3050160476
  C        -2.5015589524       17.1983698158       40.5864121365
  H        -2.6267370233       17.8202366190       41.4797108425
  H        -2.3686256625       16.1994039546       41.0105747574
  H        -1.5837307286       17.4598065786       39.9959946339
  H         7.0972019228       10.7736338413        2.8592631726
  C         7.9902388952       10.1252328825        3.1260322112
  H         7.7347259263        9.0649865368        3.2098024676
  C         8.6133956505       10.6426645089        4.4303861432
  C         8.9455998904       10.3987308191        1.9735708036
  C         7.5578448755       10.7560652021        5.5534569950
  H         9.3096234257        9.9461107519        4.8533330711
  H         9.0955820833       11.5967293451        4.2225310085
  H         8.3756668738       10.2318758765        1.0226517633
  H         9.7262307293        9.6284325772        2.0594138234
  H         9.3573792737       11.4027727802        1.9985775901
  C         6.7575171932        9.4670239042        5.8405905121
  H         8.1510589720       11.2479098639        6.3711771967
  H         6.8730622128       11.5124034442        5.1941995899
  C         6.3521262853        9.2380707039        7.2403726230
  H         7.2707223166        8.5457256028        5.6299958279
  H         5.8524153507        9.4875204904        5.2645413710
  C         5.2183975734       10.0862230346        7.6304431235
  H         7.0522047789        9.4916743193        7.9582891895
  H         6.1638025001        8.1737721051        7.4023822686
  C         3.8939134157        9.5304953227        7.0833357967
  H         5.1674525399       10.0524465970        8.6972393953
  H         5.4262301937       11.0714745236        7.2541281533
  C         2.6181186295       10.3728112612        6.9501737100
  H         3.6424826725        8.8080022121        7.8138993830
  H         4.1107074580        9.0155952783        6.1939103713
  C         3.0437221138       11.7068943614        6.2727600841
  C         2.2487643913       11.0706878202        8.2329716437
  C         1.4448050587        9.7301516101        6.1827660566
  C         2.8583531388       12.8040608652        7.1162295462
  C         3.5668180201       12.1134706596        5.0079954545
  C         2.3360653481       12.4463269154        8.3480568874
  C         1.8908528566       10.4832939410        9.4508262991
  H         1.8438995175        9.2856481756        5.2989569214
  H         1.0615459670        9.0656495281        6.9803641209
  C         0.3022454516       10.7839077898        5.8073538216
  S         3.3690211314       14.3215733102        6.3730649863
  C         3.6731246892       13.4765174446        4.9422713750
  H         3.8436045470       11.3185580384        4.3292415002
  C         1.9806292862       13.1056472491        9.5140207697
  H         1.8841864901        9.4288229791        9.4241822744
  C         1.6292950308       11.1086990165       10.6543864629
  H         0.8145466125       11.5762107503        5.3978010593
  H        -0.1205604703       11.1918379913        6.7535897110
  C        -0.6676668059       10.2925420558        4.7971505839
  C         4.0891791614       14.1517399768        3.6580328502
  C         1.6387724055       12.5156490673       10.7299353304
  H         1.9514043873       14.2092049664        9.4615275303
  C         1.3610780134       10.7415149946       11.9611889973
  H        -1.5934201783       10.9215061112        4.7538603477
  H        -0.9873682822        9.2784986684        5.1546822957
  C        -0.0866935341        9.9417070960        3.3963919795
  C         4.1639825796       15.5333939888        3.4167256006
  C         4.3617510373       13.2826884780        2.4706327130
  C         1.2485172226       13.2343721674       12.0080553838
  C         1.0636417878       11.8567668715       12.6995932037
  S         1.1133355296        9.2630092079       12.6793715403
  H         0.4411576515        8.9881464996        3.5178879290
  H         0.6349491069       10.7123877121        3.1426793738
  C        -1.1340464452        9.8539667809        2.3720046794
  N         3.9624502211       16.4356934226        4.4197771708
  C         4.3764103112       16.1081023744        2.1840460226
  C         4.7110922648       13.8884842327        1.1817690164
  H         4.3346055312       12.2396194209        2.6289167660
  C         0.0230747765       14.1062497277       11.8485126365
  C         2.4010735896       13.8898811955       12.7609610881
  C         0.7380096309       11.4458483048       14.0257064985
  C         0.6854214485       10.0729481438       14.1713345514
  H        -1.8149272216        8.9582054835        2.4250521482
  H        -1.7534218183       10.7266803629        2.4931026479
  C        -0.4500980702        9.8581988965        1.0202659097
  S         3.8702432949       17.9688414305        3.6892632564
  N         4.3121906248       17.5053354784        2.1947691394
  C         4.7573778168       15.3708886731        1.0206768560
  H         4.7358091720       13.1752955129        0.3374604173
  H         0.2692871082       15.0373644277       11.2788250356
  H        -0.2807373259       14.3926149016       12.8380276273
  C        -1.1437666792       13.4468030388       11.1545109515
  H         2.5913685711       14.8141088533       12.3273385155
  H         2.0876671771       14.0684606058       13.7190691978
  C         3.6828112834       13.0184760811       12.8099625841
  H         0.5163349219       12.0932554802       14.8423409944
  C         0.4059972263        9.4199433368       15.4965743193
  H        -0.0119321339        8.9037483669        0.7755302036
  H         0.4576095040       10.4540869625        1.0758135268
  C        -1.3565647850       10.4655831165        0.0096561673
  C         5.0446249662       16.0540986012       -0.2308382773
  H        -0.8308462288       13.3021070523       10.1210996777
  H        -1.2906869152       12.4911905989       11.6303711946
  C        -2.4179782406       14.3075450098       11.1881704451
  H         4.0319795541       12.8173877326       11.7843073786
  H         3.5245596766       12.0551112815       13.3678806852
  C         4.6345916459       13.8438306333       13.7437943653
  C         0.2619074507        8.0329261215       15.6611890389
  C         0.0951090717       10.1764630760       16.7704206469
  H        -2.3759512326       10.1260876179        0.3398603456
  H        -1.4937077235       11.4956865541        0.0432892807
  C        -1.2136561511        9.9477180388       -1.3741942598
  H         4.5944048260       17.0233988035       -0.2809865498
  C         5.3708641352       15.6929283422       -1.4735313441
  H        -2.3655214186       15.1736302902       10.5135123282
  H        -2.6189063540       14.7426685663       12.1427831256
  C        -3.6587068064       13.5842347832       10.5988113795
  H         4.6954257351       14.7540558731       13.2389058388
  H         4.0578175582       14.1795248112       14.5842422227
  C         6.0332591394       13.1937967303       14.1173327566
  N         0.4605306631        7.0843297778       14.6677955554
  C         0.0894558852        7.3395149904       16.8880246727
  C        -0.1205241182        9.4987432699       17.9847049548
  H         0.3091989155       11.2304866564       16.6998784444
  H        -1.6459580752       10.7140639888       -2.0252327520
  H        -1.8133996763        8.9931693501       -1.4715197408
  H        -0.1910873852        9.6575005472       -1.6418126716
  S         5.7383626460       14.0991519551       -1.9856942032
  C         5.4048270384       16.7737568022       -2.5287348079
  H        -3.2716819595       13.0042593746        9.7568277674
  H        -3.9543088970       12.9208175643       11.3367095893
  C        -4.8303950356       14.5235368235       10.3505355295
  H         6.1001030504       12.2755064222       13.4373388262
  H         5.9596176214       12.8572311633       15.1557176578
  C         7.2455014773       14.1335164098       14.0064841149
  S         0.3272515634        5.5508125357       15.2499312314
  N         0.0583218617        5.9568285482       16.8029603849
  C        -0.1781536728        8.0194966021       18.0936222097
  H        -0.2889289228       10.0977010398       18.8020938737
  C         5.9397823382       14.8421970238       -3.6112887440
  N         5.8004450731       16.1847008079       -3.6548424946
  O         5.0104096090       17.9552299335       -2.3179018297
  H        -5.4521055467       14.4933510667       11.2185333096
  H        -4.5436013777       15.5258381641       10.0325559272
  C        -5.6625378941       13.8364002316        9.2596466585
  H         8.1536934070       13.7183640095       14.4882839857
  H         7.3730465373       14.3644973201       12.9397789711
  C         7.0383757871       15.4456667879       14.7936228891
  C        -0.3944893438        7.3067539943       19.2808082742
  S         6.1882716253       14.1059047488       -5.1595545856
  C         6.1152030239       16.9258844266       -4.9101465650
  H        -5.2377435765       13.8633457389        8.2320341179
  H        -5.5832256660       12.7744434742        9.4477982388
  C        -7.1897607012       14.1542700348        9.3464085605
  H         6.5812704636       15.2419961416       15.7522781995
  H         6.3527322796       15.9676553512       14.1844517281
  C         8.3240903433       16.3892524175       15.0194116514
  H        -0.0871793764        6.2930432460       19.3031503487
  C        -0.9259677877        7.7115781429       20.4593468055
  H         6.6873181071       16.4044318823       -5.6936383777
  H         6.7870841925       17.8060918767       -4.6793079259
  C         4.8330633190       17.3057582043       -5.6133129411
  H        -7.4670654037       14.2159541507        8.2276523232
  H        -7.3765613764       15.1850659524        9.6672133326
  C        -8.0586294505       13.3299696072       10.2677372018
  H         8.6711860114       16.3422100222       16.0791706797
  H         9.2500471063       16.0310469674       14.4436093496
  C         8.0169806045       17.9159527336       14.7572327052
  S        -1.4647683513        9.2896003082       20.9313015520
  C        -0.8513493114        6.7776449317       21.6912681724
  H         4.4950357303       18.3124257597       -5.3042628808
  H         4.0676181162       16.6313067387       -5.2603645627
  H         4.9338783007       17.3126609707       -6.6646773779
  H        -8.7256438747       14.0501837685       10.8160419062
  H        -8.7589335183       12.6311807104        9.7571850964
  H        -7.4188260212       12.6205342556       10.8549880846
  H         8.7416559191       18.5560077525       15.2950595498
  H         7.9841102429       18.1549697309       13.7179537494
  H         6.9331093593       18.1048663496       15.0442515978
  C        -1.8095189252        8.6675041151       22.5527354770
  N        -1.5403164840        7.3479835463       22.7286904247
  O        -0.3904925620        5.6336042893       21.7597265191
  S        -2.6021732968        9.6426850872       23.7096807617
  C        -1.6553697157        6.6749408176       24.0224451302
  H        -1.9008052142        5.5858682432       23.9863788471
  H        -2.4162339253        7.1062097144       24.6133807981
  C        -0.4140707374        6.8462841009       24.8545277760
  H        -0.6601621628        7.6837576166       25.5398704665
  H         0.4177579016        7.2305864970       24.2582878210
  H        -0.0995606332        6.0302714657       25.4827143975
