352
i =
  H        -3.9462756983       14.1753039206       16.8168725258
  C        -3.0931012876       13.4019778313       16.7818423563
  H        -3.5562355035       12.5080800998       17.1214244407
  C        -1.9622176155       13.9101066221       17.7155436224
  C        -2.6288933085       13.1345237373       15.3270209695
  C        -2.4514360790       13.9940963387       19.1783892954
  H        -1.1177402174       13.2142524487       17.7494667737
  H        -1.5128513029       14.8465247360       17.3578702397
  H        -2.2986610044       12.1301135724       15.3639561939
  H        -3.4015573587       13.3322136794       14.5361868537
  H        -1.8151208032       13.7498359322       15.1301239796
  C        -2.6334323136       12.6599627214       19.9139625225
  H        -3.4054607821       14.5086624197       19.2069155938
  H        -1.6603178893       14.6537360635       19.6915368946
  C        -2.8473630300       12.9422351708       21.4251666574
  H        -3.5450691229       12.2486925716       19.5339483008
  H        -1.8255813900       11.9996988300       19.6487046540
  C        -1.6576172021       12.6719902342       22.3300839164
  H        -3.6287647068       12.3566344971       21.9132537326
  H        -3.0137478911       14.0220627739       21.5087714548
  C        -0.4041036413       13.5075150037       22.1714754724
  H        -2.0501516011       12.6686152118       23.3347484211
  H        -1.3386865232       11.6583938931       22.0369601782
  C         0.7507994345       12.9947125313       23.0084182025
  H        -0.0870176809       13.4087355125       21.1550756575
  H        -0.7049255627       14.4918145529       22.5742552643
  C         1.0833345035       11.6154322896       22.3739230084
  C         0.2992086143       12.3221586205       24.2932674703
  C         1.9584399494       13.9691474197       23.0710254838
  C         0.8200115497       10.5414352790       23.2139330027
  C         1.6529611629       11.1993673095       21.1944699316
  C         0.2857751515       11.0079701082       24.4303206300
  C        -0.0455791341       12.9760351875       25.4559550020
  H         2.3070437708       14.2402310874       22.1058218941
  H         1.6926715558       14.8933683367       23.6620913706
  C         3.1330446687       13.3512156485       23.7813560356
  S         1.2694560701        8.9893677629       22.6300594601
  C         1.8456072347        9.8209597884       21.1381568092
  H         2.1600411111       11.9897281317       20.5811946729
  C        -0.0541645557       10.3686768806       25.6034100774
  H         0.0940275886       14.0467181025       25.2501724001
  C        -0.4013389867       12.4336524798       26.6279683994
  H         3.4829731036       12.3956440358       23.4130751249
  H         2.8072253846       13.2532174790       24.8063865609
  C         4.3903262292       14.2302168133       23.8997991753
  C         2.4081010269        9.0128757246       19.9848184799
  C        -0.4432417910       11.0693992123       26.7964517250
  H        -0.1181960505        9.2144788789       25.7316019779
  C        -0.8024858962       12.7703184844       27.9141525690
  H         5.0038383532       13.8240640159       24.6841307392
  H         4.1689979865       15.2163105403       24.1349853280
  C         5.2679487702       14.2365601828       22.6168260533
  C         2.2488294217        7.6459821001       19.8177562915
  C         2.9904210302        9.8107234367       18.8302722343
  C        -0.8011988886       10.3444035849       28.0776224215
  C        -0.9529761327       11.7113132074       28.7813181778
  S        -1.1045117672       14.2850061818       28.7023945354
  H         5.9625618986       15.0442363675       22.7811039326
  H         4.6137214027       14.4753928647       21.7793163274
  C         6.0411025178       12.9947338190       22.3480158127
  N         1.8402433006        6.6792520735       20.7531654394
  C         2.5503594043        7.0382853120       18.6213939680
  C         3.2705735257        9.1777849378       17.6466206218
  H         3.0473689568       10.9004739149       18.8535666865
  C         0.3052821195        9.4527424761       28.7345324483
  C        -2.2328892971        9.6286437704       27.9871701260
  C        -1.4890263148       12.1036245340       30.0263675218
  C        -1.5091319068       13.4820721181       30.1097167174
  H         7.0133082553       13.1740082763       22.6168172018
  H         5.6947444063       12.1712167412       22.9848745183
  C         6.0830948494       12.5627358957       20.8440896547
  S         1.7861657601        5.2349766897       20.0512726767
  N         2.3592757349        5.6433382528       18.5921539692
  C         3.0216568745        7.7355899809       17.4504278612
  H         3.8455135260        9.7793248703       16.8653294669
  H         0.6856806467        8.8718689355       27.9329132512
  H        -0.1491378886        8.7521112902       29.4427833486
  C         1.4320231861       10.2118553208       29.4253396152
  H        -2.1082092070        8.7486944419       27.3737389767
  H        -2.4656801947        9.3005713775       28.9748773335
  C        -3.3103516895       10.4827756191       27.4131865115
  H        -1.6321760708       11.2848565044       30.6867613416
  C        -1.9010019026       14.2780391418       31.4096811939
  H         5.2229913011       11.9962676628       20.5270538407
  H         7.0058957147       11.9552113351       20.8606923966
  C         6.3493747304       13.7007714844       19.9373926723
  C         3.1702878149        7.1180773877       16.1747021233
  H         1.8019115503       11.0255283877       28.7879451917
  H         0.9873410196       10.7182461661       30.2757012410
  C         2.5310475250        9.3487984463       29.9282341764
  H        -3.0439336148       10.8769424344       26.4477814951
  H        -3.5699852056       11.3046737257       28.0516617126
  C        -4.4967427321        9.7144565922       27.1485869110
  C        -1.9369227004       15.6917118661       31.5462429258
  C        -2.0117003296       13.4702161365       32.6614123776
  H         5.3943550221       14.1344032037       19.5276502208
  H         6.9220872837       14.4824821116       20.2920038310
  C         7.1003303533       13.3706613356       18.6825561429
  H         2.8633817744        6.0963753327       16.1914302855
  C         3.4744236915        7.5687495507       14.9286049439
  H         2.9083629262        8.6760677973       29.2136431615
  H         2.1940846710        8.6753014283       30.7239333393
  C         3.6297267977       10.1075226175       30.6148572730
  H        -4.3396012585        8.9950970766       26.3484282589
  H        -4.7089197882        9.0061861491       27.9876868585
  C        -5.7037355947       10.4721684807       26.8429545986
  N        -1.7670113577       16.6489142274       30.5314340548
  C        -2.1560762353       16.2785413441       32.7630622383
  C        -2.2869233268       14.1105923260       33.8387536406
  H        -1.8683542175       12.3882255509       32.6248325326
  H         7.4252313860       14.2752919573       18.1849776271
  H         7.9578372398       12.7258282837       18.9183375893
  H         6.4320600572       12.8383686903       18.0484816907
  S         3.8870181064        9.2336140600       14.4403257031
  C         3.3489847397        6.5990143205       13.7944044975
  H         3.9027450100       10.9824832318       30.0982101233
  H         3.3812851066       10.3693411660       31.5935281073
  C         4.9163506986        9.2427068436       30.4921980509
  H        -5.3303904081       11.4191573618       26.4275648879
  H        -6.2326793776       10.6832382027       27.7962356187
  C        -6.5151897408        9.6452878838       25.8928919627
  S        -1.8794335084       18.1226563426       31.1852296137
  N        -2.2159232148       17.6351592770       32.6897267672
  C        -2.3501718726       15.5649186836       33.9667096692
  H        -2.3612553147       13.6069891968       34.7514764188
  C         3.9257106103        8.5244945831       12.7923479550
  N         3.8163004915        7.1997144562       12.7182891413
  O         3.0471007822        5.4299582670       13.9374171644
  H         5.8010179918        9.8458172124       30.3811814203
  H         4.9532854332        8.7281388048       29.4771479180
  C         5.0298443669        8.2284434409       31.6613158110
  H        -5.7910053446        9.2973769149       25.1739308787
  H        -6.9241392066        8.7976684607       26.3100362980
  C        -7.5186569416       10.6126139345       25.3290991143
  C        -2.6668344477       16.2171642601       35.1907336272
  S         4.4980201757        9.2963925091       11.2537032823
  C         3.9372066797        6.6118942490       11.3684410861
  H         5.6298586100        8.5214350765       32.5595421748
  H         3.9838054018        8.0783329057       32.1064808037
  C         5.5183536632        6.8156905531       31.0981559376
  H        -7.0818415690       10.9667715436       24.3864603507
  H        -7.6605019300       11.4828994396       25.9965447317
  C        -8.8354723358        9.8441747337       24.9320893517
  H        -2.3909547179       17.2845458073       35.2465973538
  C        -3.2272641897       15.8169488432       36.3368434604
  H         4.8892561833        6.8150800694       10.8805004391
  H         3.9371036925        5.5452115021       11.4351428457
  C         2.7471946730        6.9337338722       10.4473852482
  H         4.9111423664        6.6305199588       30.2277988047
  H         5.0976110983        6.0792774164       31.8255939110
  C         7.0512651121        6.5803046928       30.7931966293
  H        -9.4700076775       10.3008424713       24.2279046026
  H        -8.3363645309        8.9653483865       24.5249176838
  C        -9.6966488344        9.4659154642       26.2267226330
  S        -3.8125080362       14.2748509881       36.8244479432
  C        -3.4505521604       16.9522697564       37.3648326549
  H         2.6171012065        7.9314578187       10.1000100806
  H         2.7854940012        6.3463403331        9.4752371268
  H         1.7971866394        6.7089882930       10.9063185468
  H         7.6973580408        7.0532966709       31.4709807859
  H         7.1871721847        6.9489103828       29.8209064464
  H         7.2692185067        5.4873617024       30.8294561574
  H        -9.8498600181       10.3968345674       26.7097995918
  H        -9.3365709575        8.7303563134       26.8318494375
  H       -10.7420651562        9.0871212495       25.9553501997
  C        -4.2368986956       15.0479839360       38.3555761805
  N        -3.9576263874       16.3916596483       38.4879714573
  O        -3.0511650449       18.0804232762       37.2489928781
  S        -4.9493713261       14.1765757214       39.7546471108
  C        -3.9029650089       17.0537490032       39.7742446344
  H        -3.8315145818       18.1081685733       39.7297388709
  H        -4.8171003698       16.8908548072       40.3439810857
  C        -2.5996731016       16.8344929863       40.6015137006
  H        -1.9434601646       16.4662865389       39.8507426562
  H        -2.2470563618       17.6903216023       41.1849759650
  H        -2.7166732253       15.9381581385       41.2832267690
  H         7.8835075984       11.1818689415        3.8296151206
  C         8.5056670583       10.2688244295        3.9463296969
  H         7.7431071617        9.5354006193        3.8542832426
  C         9.2355618579       10.3297806810        5.3027507946
  C         9.5040675594       10.1950225286        2.8013957424
  C         8.2429334581       10.6220916432        6.4337595839
  H         9.8277678497        9.4618406821        5.5223166372
  H         9.9256577773       11.1516828692        5.3696498313
  H        10.3492247628       10.8743063277        3.0182816990
  H         9.0697488712       10.5071531430        1.8715693212
  H         9.9254964523        9.2408122288        2.6965511219
  C         7.3273579482        9.4618687537        6.8062417295
  H         8.6973507805       10.9142072320        7.3311957331
  H         7.6227983868       11.4323822990        6.0412320372
  C         6.5304363823        9.5764397288        8.0909516417
  H         7.9582082862        8.6141155812        6.8693733469
  H         6.5733318041        9.2648403473        6.0166473467
  C         5.3954136808       10.5835530870        7.9629916701
  H         7.0971819239        9.9089920944        8.9900035897
  H         6.1136992299        8.6037883256        8.3286803352
  C         4.1971458616        9.8400851258        7.3687646743
  H         5.1326993242       11.0296386396        8.8987734967
  H         5.7215382279       11.3895364457        7.3922506469
  C         2.8671843004       10.6588857480        7.2390111256
  H         4.0786583532        8.9020844417        7.9590702040
  H         4.3504691423        9.4089412016        6.3960734977
  C         3.2494265377       11.9982375554        6.6373025941
  C         2.3704073436       11.3615831027        8.4620867790
  C         1.8556337734        9.8229862980        6.4626966948
  C         2.9458088545       13.0764242514        7.4011120720
  C         3.8612479520       12.3847556640        5.4710167662
  C         2.3858841292       12.6794391563        8.5987821694
  C         1.7625818045       10.7195139475        9.5605830252
  H         2.3012793997        9.6465385163        5.5275713234
  H         1.5323922877        8.9566685536        6.9220411226
  C         0.6046448277       10.6815852874        6.1241287948
  S         3.3150382790       14.5617891213        6.7332859967
  C         3.9487691402       13.7419791116        5.3173615658
  H         4.0695318859       11.6747497746        4.7074176827
  C         1.8393351712       13.3244763218        9.6514189535
  H         1.7724489105        9.6031139323        9.5649242568
  C         1.3982706223       11.3927882368       10.6852797623
  H         0.9651598127       11.6571990855        5.7822156294
  H        -0.0797510437       10.8467924596        7.0030002686
  C        -0.3688565580       10.2285834539        5.0322144707
  C         4.4022082270       14.3674589592        4.0340188112
  C         1.3865726076       12.7087473503       10.8032347365
  H         1.8922803791       14.3863470795        9.7534503286
  C         0.9947647882       10.9690349118       11.9256308722
  H        -1.3333847402       10.6252371767        5.2051014710
  H        -0.5950141508        9.1323918585        5.1322455846
  C        -0.0430559941       10.6307021791        3.6494595375
  C         4.3715405205       15.7824698631        3.7911405929
  C         4.6121692256       13.5562753666        2.8108462760
  C         0.9200415210       13.3571069311       12.0451781459
  C         0.7012399094       11.9852888891       12.7434819426
  S         0.7692798500        9.3968563750       12.6046354349
  H         1.0047663730       10.4567747912        3.4345940909
  H        -0.0657286319       11.6842349068        3.4737087138
  C        -0.9251142512       10.0204519421        2.5609747090
  N         4.0121537897       16.7010033827        4.6810069499
  C         4.5332968267       16.3402191562        2.5610205237
  C         4.9950664472       14.1215939234        1.5988196898
  H         4.6631287164       12.4849935911        2.8525312528
  C        -0.4378495941       14.0966442939       11.8206748754
  C         2.0010295368       14.1880587029       12.7685856440
  C         0.2813209187       11.5358921126       13.9842660717
  C         0.2594395264       10.1526605308       14.0585144043
  H        -1.5590164608        9.1449280294        2.9627331879
  H        -1.7040812158       10.7068002872        2.1935546601
  C        -0.0389078443        9.4913197629        1.4350529294
  S         4.0134050183       18.1870153308        4.0625068232
  N         4.2126250927       17.7219611301        2.5266626065
  C         4.8534963350       15.5821267203        1.3469948161
  H         5.3414409526       13.4391753699        0.8811902219
  H        -0.2341739396       14.9728528755       11.2324946760
  H        -0.7058429828       14.5764652312       12.7864959021
  C        -1.4368925577       13.1801554459       11.0826338540
  H         2.3719762693       14.9013798590       12.0166286959
  H         1.6432695809       14.8585722575       13.5546214296
  C         3.1765010211       13.4060491224       13.3684180211
  H        -0.0297850146       12.3170183403       14.6989009138
  C         0.0182510762        9.3448777116       15.3127509231
  H         0.3918238040        8.5616850656        1.7800061446
  H         0.7750536616       10.3148138635        1.2674679714
  C        -0.7360678086        9.1876708223        0.0617655335
  C         5.1196140304       16.3400755103        0.1456522617
  H        -1.0131480262       12.8866201892       10.1318269461
  H        -1.7286914684       12.3125924559       11.6545120030
  C        -2.7378270582       14.0081410594       10.8574343988
  H         3.3644002011       12.4764347217       12.8188928042
  H         2.8234007766       13.1054364893       14.3534259818
  C         4.4139081956       14.2668086133       13.5554006395
  C        -0.0114638091        7.9705820957       15.4852497660
  C        -0.0711061471       10.1125412176       16.6100694293
  H         0.0562645283        9.1602091629       -0.7425693089
  H        -1.3057075802        8.2066627433        0.1281507426
  C        -1.7315407604       10.2543886508       -0.3797663733
  H         5.0494134958       17.4083793320        0.1773516754
  C         5.3759756973       15.7818320668       -1.0969866580
  H        -2.6030161707       14.2387493156        9.7993548768
  H        -2.7443293284       14.9339049462       11.4449553327
  C        -4.0211154038       13.1935238020       10.9980908513
  H         4.6654575300       14.7995675017       12.6704173377
  H         4.2812237419       14.9782478602       14.3108471457
  C         5.6546038716       13.3751915297       13.8385597045
  N         0.1443608634        7.0825958307       14.4516329415
  C        -0.2202708746        7.3844773663       16.6531522458
  C        -0.3949883442        9.5254892753       17.8159476777
  H         0.0745900714       11.1236128941       16.6567557649
  H        -2.8367244759       10.1441655233       -0.1971183996
  H        -1.5872773826       10.5169504603       -1.4427559712
  H        -1.5109660990       11.1696448842        0.1946962821
  S         5.6407057587       14.1479248890       -1.4468613844
  C         5.4071917959       16.7298021780       -2.2233484798
  H        -3.8156700669       12.2622334477       10.4603988234
  H        -4.0528618834       12.9169815442       12.0341388908
  C        -5.2698324424       13.8802692046       10.4070441894
  H         6.2464093914       13.2942767327       12.9727845561
  H         5.4923812574       12.3278845869       13.9831821134
  C         6.5689613827       13.9350538491       14.9965872494
  S        -0.0701310958        5.5564835009       15.0769547271
  N        -0.3068346374        6.0193449265       16.5820947086
  C        -0.5207759911        8.0384168243       17.8540000849
  H        -0.4548957563       10.1804063661       18.6856366643
  C         5.8407995365       14.6895848809       -3.1589717810
  N         5.7227247217       16.0153959392       -3.3297389213
  O         5.1924318887       17.9675824761       -2.2497637706
  H        -5.9264861731       14.0182616384       11.2622178089
  H        -5.0183878966       14.8544701272       10.0981928448
  C        -5.9380950912       13.0618257734        9.3149203929
  H         5.9476530696       14.0347536470       15.9164397135
  H         7.2972613360       13.0710738480       14.9742610368
  C         7.2229733297       15.2500419694       14.5173674611
  C        -0.9729168755        7.2699993449       18.9529468296
  S         6.0529210059       13.7370560595       -4.5513511817
  C         5.7974174305       16.7822119769       -4.5973828271
  H        -5.1252835190       12.9260173481        8.6372893068
  H        -6.3115834435       12.1376985232        9.8142581007
  C        -7.0977012213       13.8035779914        8.5857035699
  H         6.7650950536       15.6058646165       13.6049387747
  H         8.2874657699       15.1417910212       14.1342929108
  C         7.3866278551       16.2739411563       15.6038232077
  H        -0.8072144859        6.1951583292       18.9098897555
  C        -1.5250902440        7.6726579464       20.1372395406
  H         6.5633464231       16.3593147791       -5.3666490689
  H         6.1990202871       17.7878854151       -4.5199820829
  C         4.3497663826       16.9636413217       -5.1887727264
  H        -7.5958088777       13.1867599377        7.8225216296
  H        -6.6574709462       14.5932109123        8.0449343293
  C        -8.1744431410       14.2847790319        9.5420067525
  H         6.4322269750       16.8309282809       15.7835808756
  H         7.5882742497       15.7655207747       16.5458109485
  C         8.5887286349       17.1729341627       15.4008093905
  S        -1.9904051080        9.2739400601       20.6866539861
  C        -1.8244999102        6.5706840218       21.0879683776
  H         3.5580961350       16.3941472640       -4.6809502098
  H         4.3420919797       16.5929313498       -6.2268508718
  H         4.1469450646       18.0789906117       -5.3628283665
  H        -8.9945602077       14.7085406912        8.9022152657
  H        -8.5810222360       13.4223741650       10.0748908978
  H        -7.6839975712       14.9685793786       10.1862376998
  H         8.4439926534       17.7570225868       14.4953175370
  H         8.6199637119       17.8126218805       16.1861326873
  H         9.5153833271       16.6398348908       15.3846029133
  C        -2.3122289511        8.4616913857       22.2387720292
  N        -2.3137557035        7.1239918461       22.1895194762
  O        -1.5760393583        5.4065957539       20.9841041526
  S        -3.0993429572        9.2454274747       23.6007346335
  C        -2.4585143112        6.2933585952       23.3488080595
  H        -2.7217532841        5.3505051818       22.9411865786
  H        -3.4066813158        6.5519665661       23.9248460085
  C        -1.1608153619        6.3210695101       24.1424770969
  H        -0.9043118704        5.3619088458       24.6269922652
  H        -1.1689675606        7.1982583960       24.8135682619
  H        -0.3566256879        6.3964944425       23.4489964045
