352
i =
  H        -3.4898862133       14.5482250232       16.1944177932
  C        -3.1669622966       13.5014218270       16.3333242931
  H        -3.9364199676       12.8552091005       16.6605494830
  C        -2.0126366368       13.4469041311       17.3944054646
  C        -2.7689618153       13.0383096479       15.0023024498
  C        -2.5900050702       13.4899507658       18.8205200593
  H        -1.3928399417       12.5539303086       17.1496210455
  H        -1.4352933218       14.3762586469       17.3525590704
  H        -1.9063717339       13.6211526913       14.5959663103
  H        -2.4045725161       12.0094989163       15.0598500778
  H        -3.6016628846       13.0943364359       14.2783065955
  C        -1.5677985166       12.8902125642       19.7766103050
  H        -3.4839808861       12.8109671987       18.9184994183
  H        -2.8784031788       14.5360296841       19.0476997623
  C        -2.2144523380       12.9343133096       21.1218227667
  H        -1.3279282460       11.8857811018       19.4298257793
  H        -0.6753993743       13.5192901949       19.7973148153
  C        -1.3559157052       12.4386366264       22.2967719610
  H        -3.1093714742       12.3672350898       21.1137368643
  H        -2.4965594319       13.9844584764       21.3512383970
  C        -0.2032367377       13.4493724923       22.6342995673
  H        -1.9704508809       12.3536704604       23.1992269671
  H        -1.0071950267       11.4262992316       22.0670983826
  C         1.0244496326       12.8970105805       23.3513260322
  H         0.2387002290       13.9169404519       21.7867383323
  H        -0.6400112130       14.3124861132       23.1756160524
  C         1.4662181351       11.5559808036       22.6745614067
  C         0.6672117719       12.1454139357       24.5769519000
  C         2.0836084490       13.9684182021       23.6435372621
  C         1.3113802062       10.4101753825       23.5031681940
  C         1.9312354746       11.1167976818       21.4292824809
  C         0.7693551990       10.7941877058       24.6772247940
  C         0.0995266705       12.7380809330       25.7191388735
  H         2.1699634678       14.6578288972       22.7938552319
  H         1.8013361172       14.7407713686       24.4343878512
  C         3.4890763576       13.4461639940       23.9097150404
  S         1.9650547203        8.9844612425       22.8400647037
  C         2.1705727553        9.8343430633       21.3308207019
  H         2.0814796186       11.8154384617       20.6240923013
  C         0.2819325269       10.1781868862       25.8078815684
  H        -0.1645996385       13.7565900283       25.5750924636
  C        -0.1531882993       12.1223088377       26.9206968775
  H         3.8107106659       12.6436321542       23.2463661116
  H         3.5106799395       12.9300141449       24.8629983787
  C         4.5806168133       14.4906841194       23.9206388777
  C         2.3813863626        9.1573382148       19.9550744919
  C        -0.0814779344       10.7731545100       26.9745043400
  H         0.4783746983        9.0913657796       25.9118522423
  C        -0.5593133023       12.4698157210       28.1387522345
  H         5.3567136536       14.3424797659       24.5819227755
  H         4.1472436580       15.4126119206       24.1294419114
  C         5.0466719467       14.6420960743       22.4653899136
  C         2.3263711808        7.7545699528       19.7139173765
  C         2.8020795129        9.9200141900       18.7091141028
  C        -0.4054450931       10.0599614107       28.2366362855
  C        -0.7167008014       11.3568661346       28.9623758087
  S        -1.0175800630       13.8978712170       28.9687722402
  H         5.3280255117       15.6168113795       22.2032928481
  H         4.2083858714       14.4734993001       21.8218977798
  C         6.2449392105       13.8658524912       21.9134835612
  N         2.0379655243        6.8303478336       20.7358658701
  C         2.6518032582        7.1235998020       18.5287504361
  C         2.9652072101        9.2868088685       17.4391988678
  H         2.9853268810       11.0171969635       18.8076436844
  C         0.7763966785        9.2513986207       28.7968617580
  C        -1.6988997438        9.2257572892       28.0223885559
  C        -1.2412347098       11.6766095107       30.2109649003
  C        -1.4356679024       12.9947510074       30.3839789997
  H         6.9390160368       14.4981945651       21.3888925633
  H         6.7172095688       13.4977795409       22.7888326072
  C         5.9957315880       12.5978051254       21.0918554158
  S         2.2361449584        5.3403083166       20.1544192739
  N         2.5563601035        5.7553109316       18.6279140535
  C         2.8303847563        7.8204552743       17.3051987732
  H         3.1787769422        9.9737296197       16.5383609985
  H         0.7632394217        8.3238108216       28.2629633591
  H         0.3988369581        8.9182839839       29.7845496615
  C         2.1027520047        9.9317435701       28.7808504797
  H        -1.5629223907        8.4394644414       27.3054147722
  H        -2.0154763789        8.8174751712       28.9826791679
  C        -2.8383417899       10.0253109257       27.4296346588
  H        -1.3740541687       10.8838001423       30.9164434679
  C        -1.7443170568       13.7402974844       31.6616971428
  H         5.2952030014       11.9635570076       21.5814201786
  H         7.0079528693       12.1305847262       20.9892086855
  C         5.5185719954       12.9249016341       19.7132711776
  C         2.8487836443        7.0455007184       16.0981172288
  H         2.6241463351        9.5001874712       27.9242886752
  H         2.0839013091       10.9444640018       28.5310147339
  C         2.8149528651        9.6197489270       30.0591892294
  H        -2.6305490719       10.5441745051       26.4925771428
  H        -3.1324172786       10.7768650888       28.1794486863
  C        -4.1016409674        9.1965060411       27.1831656540
  C        -1.8199401699       15.2046398247       31.8183482071
  C        -2.1652841185       12.9430697701       32.8429430436
  H         5.0847155397       12.0152834380       19.2849205017
  H         4.7372042246       13.6555284995       19.7651345970
  C         6.5549830378       13.1569574036       18.6619220500
  H         2.7665712987        6.0002637114       16.2146536630
  C         3.2693787373        7.4149253963       14.8289085063
  H         2.6696054837        8.5819010174       30.4280894967
  H         2.1912285293       10.1471446031       30.8119068851
  C         4.2448182551       10.0949180607       30.1613279660
  H        -3.9233722708        8.1830092566       26.7388029038
  H        -4.6097139157        9.0407295966       28.1663072754
  C        -5.0063476951        9.9272844883       26.2148614092
  N        -1.5204567681       16.1422702776       30.8456509637
  C        -2.1193105520       15.7857889100       33.0620678087
  C        -2.3805427959       13.5680597091       34.0806271255
  H        -2.2389854021       11.8668384478       32.7549884533
  H         6.1502623853       13.1483892505       17.6797961545
  H         6.8766136654       14.1683172091       18.7070957987
  H         7.2911173462       12.3558028482       18.5631958652
  S         3.4436612697        9.0525076301       14.2474324474
  C         3.4189598810        6.3692581624       13.7606495974
  H         4.4291756181       10.7905253324       29.3954092744
  H         4.4740736228       10.6358428839       31.1045991096
  C         5.2534003326        8.9830266307       29.8136627582
  H        -4.4964823568       10.2574415245       25.3598998740
  H        -5.3319853776       10.8630980941       26.6147963341
  C        -6.3735644753        9.3091755261       25.9055562271
  S        -1.7980668393       17.6359860411       31.4547349885
  N        -2.1288945120       17.2255538684       33.0217960550
  C        -2.4287696246       15.0501353755       34.2308781698
  H        -2.5889529612       12.8150502843       34.9042445777
  C         3.8342992500        8.3061202137       12.6516628731
  N         3.6988691202        6.9499137573       12.5786500806
  O         3.2510886530        5.1540678045       13.9849769786
  H         6.1768218138        9.3653814932       29.5565563119
  H         4.8641125516        8.4077280299       28.9166427595
  C         5.4981459690        7.9234786482       30.9210917419
  H        -6.2532878925        8.3432755380       25.4729547589
  H        -6.8867372559        9.1111022348       26.8488922488
  C        -7.2849431038       10.2765537551       25.1050134429
  C        -2.7454129963       15.6618017035       35.4167430143
  S         4.1375383864        9.2927863434       11.1855664517
  C         3.7305928260        6.2209377798       11.3326587632
  H         5.8106399861        8.5479226853       31.8098197777
  H         4.6275139592        7.4276761489       31.4030150138
  C         6.6440626024        6.8514819375       30.5993147390
  H        -6.6623468263       10.7593997580       24.3350211184
  H        -7.5246933692       11.0300316551       25.8460212354
  C        -8.6247833215        9.6589172530       24.6677094725
  H        -2.2739895359       16.5836536562       35.5808344694
  C        -3.5017364844       15.3804126290       36.5472773576
  H         4.4432304673        6.6113606934       10.5470470364
  H         4.0726498139        5.1874359714       11.5597647053
  C         2.3617154349        6.1350744584       10.7138008733
  H         7.5620324179        7.4267325391       30.6952344437
  H         6.5938507944        6.6286064171       29.5779657970
  C         6.5492910922        5.6266965920       31.4726372489
  H        -9.0008284163       10.2131930683       23.7935071422
  H        -8.6727459265        8.6130740016       24.4196328936
  C        -9.6863567100        9.8438000611       25.8403959168
  S        -4.3189588373       13.8508912834       36.8642666274
  C        -3.6165015710       16.4024847646       37.6452325954
  H         2.1650711479        5.1673759114       10.2518007542
  H         1.4931977272        6.0973798835       11.4097005813
  H         2.2031556088        6.8839294923        9.9473286049
  H         6.9117326425        4.6901212571       30.9730635307
  H         5.5093972511        5.3837123865       31.7138058194
  H         7.0249277339        5.6945362330       32.4546729960
  H       -10.6701378924        9.9998625252       25.3979733243
  H        -9.4858929095       10.6886578240       26.5390497990
  H        -9.7355634540        8.8679169004       26.4113819279
  C        -4.7935660246       14.6063491170       38.4241975780
  N        -4.3558063908       15.8567331770       38.6355219672
  O        -3.0241531194       17.5353133412       37.6392572196
  S        -5.3898353456       13.7430610597       39.8419372864
  C        -4.5246263831       16.6784240521       39.8247164054
  H        -4.5205672456       17.7532621782       39.4987446997
  H        -5.5429936114       16.6068353414       40.1960891107
  C        -3.4855484927       16.3782345537       40.9228407507
  H        -3.8403283801       15.4635027227       41.3745189389
  H        -2.4340938946       16.2818458530       40.5675044684
  H        -3.5765467601       17.1034252009       41.7463237244
  H         7.5037097341       10.9500763725        3.4900298154
  C         8.1220373536       10.0947094775        3.6017887965
  H         7.5201730873        9.2111392839        3.5792156603
  C         8.8517010948        9.9999964401        4.9538545951
  C         9.3024155471       10.1224741862        2.4891013186
  C         7.9107668139       10.3932002562        6.1064963694
  H         9.4138517872        9.0230441658        5.1667990906
  H         9.6392329309       10.7640632431        4.8431693111
  H        10.0564774183        9.4514655635        2.8784050701
  H         9.9647428311       11.0726973714        2.5230465123
  H         8.9798960273       10.0564937097        1.4464854419
  C         7.1279857517        9.1884770883        6.5689705240
  H         8.5019480530       10.7176942632        6.9575794042
  H         7.2268364705       11.2646210404        5.8566431184
  C         6.2939317260        9.2099509789        7.8326808630
  H         7.8338075404        8.3380674305        6.5055234003
  H         6.4166593268        9.0454487278        5.7468764753
  C         5.0642996281       10.0938698090        7.6751569966
  H         6.9611608968        9.4342524651        8.7046969435
  H         6.0596774906        8.2188540280        8.1452147573
  C         3.8855900685        9.4791263321        6.8835486065
  H         4.6931873508       10.3012560006        8.6783656837
  H         5.3194636915       11.0429156789        7.2967306495
  C         2.6701964642       10.4714068682        6.6602458013
  H         3.6347437942        8.5749581223        7.4436814203
  H         4.3166094530        8.9987100970        5.9889996891
  C         3.1131906505       11.8336712231        6.0537287525
  C         2.1756148736       11.1163051166        7.8907406411
  C         1.5016771007        9.7747426980        5.8580017778
  C         2.7864462000       12.9084199098        6.8229085344
  C         3.7163779250       12.2557446662        4.8353667784
  C         2.2821798623       12.4948152710        8.0086647285
  C         1.5801317488       10.4356765715        9.0154242180
  H         2.0056391183        9.1717818717        5.0666084726
  H         0.9646629611        9.0884481156        6.5413399236
  C         0.5015422388       10.7304587275        5.1971427833
  S         3.1910952526       14.4369607624        6.1405824619
  C         3.7362338837       13.6055366650        4.6583653922
  H         3.9936069993       11.5139248036        4.1170629516
  C         1.7205170801       13.0024064493        9.1781078578
  H         1.5226529634        9.3532639438        8.8575882593
  C         1.2298327794       11.0310073727       10.2229585154
  H         0.9453827617       11.6180945172        4.9023071819
  H        -0.3031032017       10.9999435289        5.8646660373
  C        -0.0738750518        9.9872501146        4.0179597086
  C         4.2185570495       14.3688284639        3.4644321002
  C         1.2957529182       12.3420419180       10.3626576399
  H         1.7092839560       14.1057623717        9.2001258573
  C         0.8368275392       10.5890090307       11.4797825617
  H        -0.2231627087        8.9842561752        4.4028781812
  H         0.7380224717        9.9065888189        3.3038792278
  C        -1.2659633971       10.7992987742        3.3487555618
  C         4.1132132221       15.7721582076        3.3091909845
  C         4.6919609004       13.5987021647        2.2474569712
  C         0.9146196688       13.0031598956       11.6734022141
  C         0.5791884247       11.6657645994       12.2601825405
  S         0.4958538340        9.0947247490       12.1512434213
  H        -0.9880605354       11.7729513298        2.8801811996
  H        -1.9201041726       11.1341484361        4.1307048168
  C        -2.0166161215       10.0032932688        2.1839286966
  N         3.6225240088       16.6346014540        4.2601585576
  C         4.3083944015       16.3605271031        2.0734198711
  C         4.9712266538       14.2118634045        1.0356381397
  H         4.8466984142       12.5086806934        2.3409619962
  C        -0.2913442529       13.9460225349       11.5337011136
  C         2.0849139652       13.7432410068       12.4057664307
  C         0.1639698650       11.2697974062       13.5515579094
  C         0.1226131266        9.9126259316       13.6627799696
  H        -2.5476431160        9.1653753858        2.5862203721
  H        -2.8008016058       10.6097682203        1.6737293337
  C        -1.1805631264        9.3874660034        1.1221446393
  S         3.5981371413       18.0883103947        3.5617305833
  N         4.1679451449       17.7180562241        2.1292156172
  C         4.8090074647       15.6599279814        0.9153852396
  H         5.3804812910       13.5776039885        0.3011898531
  H        -0.1803839735       14.5993227658       10.7428249745
  H        -0.3879997388       14.6664165796       12.3720083287
  C        -1.6968871783       13.2392646931       11.2185482640
  H         2.5075070306       14.4706433287       11.7565690718
  H         1.7414778866       14.2731190163       13.3108816146
  C         3.1307920072       12.8520709263       12.9215315333
  H        -0.0647980164       12.0281437842       14.2837478780
  C        -0.1155916038        9.1254454295       14.9563948379
  H        -1.8368124201        8.8141571316        0.5548303100
  H        -0.5115033887        8.6466516398        1.5931293270
  C        -0.3666253265       10.3127820983        0.2286463761
  C         5.0921057241       16.3989021653       -0.2835468388
  H        -1.4789235165       12.3554234996       10.5914717186
  H        -1.9427261702       12.8421112828       12.1729222471
  C        -2.9013243540       14.0281277127       10.8901452166
  H         3.3137772465       12.1698244421       12.1173044480
  H         2.7130769760       12.2774635675       13.7138809426
  C         4.4420725039       13.5997400850       13.3559822916
  C        -0.1891491636        7.7100767460       15.0306182773
  C        -0.3325432105        9.8988206248       16.1594480839
  H        -0.5636786561       11.3543032500        0.4361739844
  H         0.6632720163       10.2339909986        0.3344636077
  C        -0.6132082538       10.1553301797       -1.2821383838
  H         4.9482430857       17.4294614707       -0.2323775152
  C         5.3111055562       16.0083953680       -1.6018742250
  H        -2.8455714629       14.7903977406       10.1187165504
  H        -3.0986016375       14.7336145886       11.7027752528
  C        -4.1476822126       13.2044056064       10.6450081828
  H         4.7930395716       14.2137441893       12.5128316293
  H         4.1993580548       14.3372241243       14.1385154345
  C         5.4650026942       12.7177101507       13.9382104553
  N        -0.0338010482        6.7885257984       14.0090434037
  C        -0.3798856027        7.0858625903       16.2941966322
  C        -0.4901842007        9.2455949144       17.3847361567
  H        -0.2476825517       10.9648279726       16.2002843276
  H        -0.5414767027       11.1345715554       -1.8105832384
  H        -1.6439730838        9.8810502897       -1.3988314975
  H         0.0236212338        9.5088312876       -1.8349749625
  S         5.5026303131       14.4278681127       -2.2213725721
  C         5.2552285951       17.0697805619       -2.6900272666
  H        -3.8428704333       12.3838361588        9.9554747689
  H        -4.5621393683       12.8744395616       11.5928995825
  C        -5.1680485015       13.9509580698        9.8603423329
  H         5.2791581600       11.6891143680       13.5227051760
  H         5.3163719328       12.6595939538       14.9932408642
  C         6.9224346229       13.2394164664       13.7445997758
  S        -0.0839387655        5.3074875785       14.6824703193
  N        -0.3487113348        5.6873883316       16.2128755011
  C        -0.5218768209        7.7925075838       17.4867637359
  H        -0.5340174321        9.8626147183       18.2669980777
  C         5.6593113844       15.2521486094       -3.8445167298
  N         5.7924693708       16.5526789979       -3.8041012806
  O         5.2186159087       18.2823736079       -2.4588599590
  H        -5.6428458580       14.6818898230       10.5009756663
  H        -4.8158442917       14.5172812381        9.0134226557
  C        -6.2642244202       13.0499688321        9.3638376789
  H         7.6115306874       12.3946214148       13.8829959025
  H         7.0794411166       13.6092438794       12.6977062002
  C         7.2297773811       14.3705693609       14.6688969179
  C        -0.7838566805        7.0784717703       18.6937928170
  S         6.3924644182       14.4831875302       -5.2314147677
  C         5.8756981804       17.4199372085       -4.9972321466
  H        -5.9317591967       12.6056638978        8.4701689470
  H        -6.3676607020       12.3224174499       10.1354528575
  C        -7.4988411427       13.8453134872        9.1703464367
  H         7.8840480835       14.0313949304       15.3992970241
  H         6.4185781949       14.8054544957       15.2685978090
  C         7.9714834805       15.6574610771       13.9978082706
  H        -0.5861313530        6.0275402799       18.6110754251
  C        -1.3929636783        7.5090536702       19.8579619913
  H         6.7737908078       17.1864631946       -5.6094763955
  H         6.1579793531       18.4157046610       -4.7366078662
  C         4.5901317064       17.4312312737       -5.9003323718
  H        -8.1478167026       13.3371279086        8.5360316637
  H        -7.3533771132       14.8365079270        8.7536170615
  C        -8.2172230720       13.9865150565       10.4846408706
  H         8.2994246045       16.2965004104       14.8523058748
  H         8.8001292176       15.3242881418       13.3965104053
  C         7.1769292775       16.5516902802       13.0556310738
  S        -1.9544999553        9.0001433877       20.3249483429
  C        -1.3410012440        6.4706518848       20.9874059892
  H         4.8507568133       17.8505707960       -6.8834687308
  H         3.8018542002       17.9985127272       -5.4374254306
  H         4.1535567205       16.4802471849       -6.1199037808
  H        -9.2726121268       13.9607435807       10.3940408361
  H        -7.9524351211       13.2186284109       11.0717830827
  H        -7.9176605625       14.9255379449       11.0043362460
  H         7.5029360813       16.3478356797       11.9922773865
  H         6.1985453342       16.1110566960       13.0996083344
  H         7.2421300031       17.6350874332       13.4577075063
  C        -2.2155982991        8.3279892475       21.9840992744
  N        -1.8948667376        7.0202215862       22.0858934471
  O        -0.8582083478        5.3149706984       20.8529439042
  S        -2.6672304431        9.3000632837       23.3798228840
  C        -1.8850795469        6.3711730116       23.3792750888
  H        -2.1876780198        5.3331743918       23.3159844863
  H        -2.7574195432        6.7250609375       23.9337685843
  C        -0.5944973787        6.6088565721       24.0998724270
  H         0.2531099215        6.2465975985       23.6351615184
  H        -0.5966937768        5.9798954358       24.9795195506
  H        -0.4758995725        7.7332077327       24.1592419137
