352
i =
  H        -3.0749220454       14.5968344938       16.3685774294
  C        -2.8596366370       13.5469813129       16.3965859008
  H        -3.7800124874       12.9464756047       16.5688001070
  C        -1.8521509605       13.2186510222       17.4848369173
  C        -2.3365266937       12.9691260290       15.1262031544
  C        -2.4468051881       13.6510912677       18.8359275011
  H        -1.5539055474       12.1428527289       17.4415850230
  H        -0.9848815259       13.8304548908       17.2852020968
  H        -3.1487326736       12.7679401755       14.3917578378
  H        -1.7215544053       13.6997013612       14.5729574437
  H        -1.7104357384       12.1169187792       15.2208321630
  C        -1.8995035397       12.8142383393       19.9894802863
  H        -3.5059751188       13.8363443333       18.8181706200
  H        -2.2456455764       14.7007214147       18.8816562623
  C        -2.4485170091       13.2632050318       21.3398876838
  H        -2.0680897051       11.7978122698       19.7643523448
  H        -0.8815589125       12.8949140499       20.0620578353
  C        -1.6084931260       12.8152685643       22.4968102611
  H        -3.4457429128       12.8798034405       21.4941528413
  H        -2.4906522975       14.3871731816       21.2316749746
  C        -0.3928103776       13.6799540361       22.7105188549
  H        -2.1651023538       12.6195534567       23.3979716787
  H        -1.2746583965       11.7711045798       22.1837483895
  C         0.8684898122       12.9909178021       23.2217341296
  H        -0.1639797061       14.0952188306       21.7148285545
  H        -0.6941263134       14.5256650003       23.3805868776
  C         1.2895746149       11.6685194257       22.5032754611
  C         0.5295715827       12.3109164345       24.4981062310
  C         2.0296184503       14.0010955397       23.4317819114
  C         1.0262376013       10.5616420907       23.3136681417
  C         1.9879413253       11.3596061892       21.3102928519
  C         0.4813983613       10.9414060892       24.4521631812
  C         0.0948383342       12.8955567801       25.6744905379
  H         2.1435344369       14.5906939905       22.5680296003
  H         1.7276686485       14.6696575170       24.2130244160
  C         3.3885525594       13.4078378550       23.8232574106
  S         1.3722003904        9.0942729790       22.5300807832
  C         1.9783004618        9.9698840280       21.1489425423
  H         2.2045300177       12.1350563223       20.6393485821
  C         0.0294579906       10.2338063555       25.5737013281
  H         0.0790158263       14.0366084007       25.6863694238
  C        -0.2908707111       12.1892817411       26.8110237221
  H         3.7420669533       12.7399299501       23.0412064911
  H         3.3097181392       12.9786344314       24.7808012042
  C         4.5326557510       14.4206004943       23.9167285868
  C         2.6505703018        9.2221523553       19.9988657081
  C        -0.3220100414       10.8270270240       26.7683334635
  H        -0.0490043569        9.1735447076       25.5844842183
  C        -0.7962291842       12.4658303471       28.0733711546
  H         5.3116434477       13.9705187762       24.4718255168
  H         4.2012709190       15.2293911182       24.5970515881
  C         5.0914568450       14.8579329644       22.5173987349
  C         2.5506400808        7.8414021583       19.6937703753
  C         2.9131629397       10.0743788063       18.8152757394
  C        -0.6081983156       10.0369815102       28.0264529795
  C        -0.9318164545       11.3310361159       28.8448186045
  S        -1.0765498541       13.9275934121       28.9370186291
  H         5.7648192680       15.6672015622       22.5643255414
  H         4.2531926480       15.2066322577       21.9103648401
  C         5.9348735103       13.7775364559       21.7869952041
  N         2.2258540049        6.9721633540       20.7120585748
  C         2.8436125452        7.2381508068       18.4724181480
  C         3.2604522835        9.5014166363       17.5785301018
  H         2.8905542010       11.1390084506       18.8668649044
  C         0.4084151008        9.1970387991       28.8206552070
  C        -1.9414395850        9.2269161229       27.7702645957
  C        -1.1675668534       11.6640073442       30.2125408071
  C        -1.3987300002       13.0365692499       30.3556776071
  H         6.8224111473       14.3513380703       21.2917048614
  H         6.4218240931       13.0702363392       22.4648932303
  C         5.2147022787       13.1464736409       20.6109789871
  S         2.1477727696        5.4309686633       20.0064407639
  N         2.6961219301        5.8412496544       18.5477232629
  C         3.2366295045        7.9805185689       17.3456921458
  H         3.5869174644       10.1083555447       16.7587500915
  H         0.7230469523        8.3557033509       28.2224434187
  H         0.0576105843        8.7068749251       29.7874905792
  C         1.7175450741        9.9927621718       29.1166011098
  H        -1.7863605563        8.4170953944       27.0406131097
  H        -2.1985469967        8.7250188376       28.6669950714
  C        -3.1173822067       10.0881949093       27.2527499683
  H        -1.3424968328       10.8690172184       30.8743782935
  C        -1.7767530806       13.7620764488       31.6224402609
  H         4.1264304478       13.0883785181       20.8911212201
  H         5.5455445677       12.0620408252       20.5293935341
  C         5.6006000573       13.9104891218       19.2885716367
  C         3.4976317198        7.2904842142       16.1267296669
  H         2.1047692363       10.5036584571       28.2245248530
  H         1.5913551062       10.8050690816       29.8387443815
  C         2.8563953896        9.0808972221       29.5985740085
  H        -2.9249989740       10.7210912893       26.3965511845
  H        -3.3493539006       10.8213191190       28.0292587815
  C        -4.3521628689        9.3106387938       26.8430189398
  C        -1.9998512260       15.1592835105       31.7365122773
  C        -1.8603423276       12.9071507693       32.8404654089
  H         4.7703972261       13.7902367652       18.6327639890
  H         5.7390726150       14.9768870923       19.3068765237
  C         6.8249140428       13.3199027152       18.5519349578
  H         3.3693925403        6.2369857631       16.1898259440
  C         3.7551774806        7.8239588763       14.8655743630
  H         3.0797860894        8.4346352994       28.7126835173
  H         2.4282748614        8.4600354628       30.3923403813
  C         3.9874063078        9.8724770803       30.1525457636
  H        -4.2529162376        8.6542001435       25.9843812257
  H        -4.6905030185        8.6325184512       27.5902213290
  C        -5.5368428485       10.2502055506       26.4369777511
  N        -1.9871615603       16.1026268736       30.6534078395
  C        -2.2107416212       15.6950058308       33.0093076813
  C        -2.1104444565       13.4896028060       34.0811469896
  H        -1.6095752146       11.8411006947       32.8280131122
  H         6.4730453572       12.3901610977       18.0349917551
  H         7.1697217353       14.0797917233       17.8422558830
  H         7.6384577843       13.0135372019       19.2122518540
  S         3.9794947875        9.5199358170       14.2907793552
  C         3.6893587568        6.7517805724       13.8354901246
  H         3.9598275671       10.8541110652       29.6382442143
  H         3.8918597117       10.1300382079       31.1634762735
  C         5.4353808094        9.3594119801       29.9609903696
  H        -5.2887677584       11.2085977495       26.0585264269
  H        -6.1329693062       10.3801208207       27.3530162163
  C        -6.5874022943        9.5693509482       25.5233601183
  S        -2.1705353453       17.5019103593       31.3597711962
  N        -2.4068515594       17.0753973154       32.8926172995
  C        -2.2626873480       14.9780656625       34.2073954552
  H        -2.0774371598       12.8725169942       34.9838341497
  C         4.1019023470        8.6420215445       12.7312948212
  N         3.9951234209        7.3053310815       12.7007203497
  O         3.6604674261        5.5483921884       13.9898483963
  H         6.1149392814       10.0574444076       30.4443985269
  H         5.8872778376        9.3029568406       28.9784587102
  C         5.6002652974        8.0712895404       30.7788550769
  H        -6.1642825182        9.3583143606       24.5629540582
  H        -6.7447633003        8.5005172310       25.8542551505
  C        -7.8363833569       10.4447516729       25.1938106565
  C        -2.5771374462       15.6420042980       35.4175033466
  S         4.4454934401        9.4039954001       11.1610014185
  C         4.0563408289        6.4527432843       11.5410332275
  H         6.2381386381        8.3046822501       31.6636713330
  H         4.7047765438        7.6937091272       31.2592537942
  C         6.3767794616        7.0518632449       29.9067637469
  H        -7.7448448444       10.9532751517       24.2566730433
  H        -7.9280821867       11.1857101142       25.8972792891
  C        -9.1336440149        9.5591748560       25.1892878903
  H        -2.4653255677       16.7119583410       35.4311365108
  C        -3.0112473215       15.1385636626       36.5894849444
  H         4.8110034644        6.8531717905       10.8810369183
  H         4.3737272448        5.4734105626       11.7416643789
  C         2.7243027801        6.2283827975       10.8660399714
  H         7.1551481530        7.4750272697       29.3421542695
  H         5.7539955698        6.6516055004       29.0953851039
  C         6.9768826010        5.8818424334       30.7241743985
  H        -9.8016458519        9.8472368237       24.4431510587
  H        -8.8642627391        8.5981475893       24.8737307515
  C        -9.7749640724        9.5767878073       26.6308431494
  S        -3.6458605873       13.6158621195       36.8348993240
  C        -3.0930346834       16.0651179928       37.6993933201
  H         2.8651540551        5.9224392898        9.8230734023
  H         2.1472818587        5.4772984145       11.4495204419
  H         2.0641838396        7.1246225929       10.7149591864
  H         7.6191849901        6.3775289078       31.4862868178
  H         7.5484172386        5.1312817453       30.1644201259
  H         6.1765546014        5.3838483041       31.2622865815
  H        -8.9475751640        9.5516876515       27.3607865784
  H       -10.5301229909        8.8337584170       26.7231785624
  H       -10.3554849610       10.5122482166       26.6710223501
  C        -4.0227544299       14.1957203393       38.4360565835
  N        -3.7425818642       15.5047942674       38.7375209194
  O        -2.6560695269       17.2144061232       37.6343462509
  S        -4.7244417641       13.2209881609       39.7783696321
  C        -4.0568212250       16.2870856971       39.9079441303
  H        -4.2625412477       17.3597187895       39.6678391289
  H        -4.8899695281       15.8784257646       40.4168897953
  C        -2.8184694612       16.2093504491       40.8525628330
  H        -2.7156391962       15.2084415619       41.2951702709
  H        -1.9344333502       16.5077002150       40.3174766392
  H        -2.8420816753       16.9225262298       41.6955863624
  H         6.9972487237       11.0979585026        2.6383352376
  C         7.6725815461       10.3917786056        2.8857964444
  H         7.1404704313        9.4785923541        2.9692634430
  C         8.4332523765       10.7987309217        4.1540659899
  C         8.6069179726       10.2388476638        1.7111155861
  C         7.4311192046       10.8540338950        5.3914732806
  H         9.1562618891       10.0107907746        4.3762377027
  H         8.9354849876       11.7817477774        3.9561494655
  H         8.0790401905       10.0371019104        0.7700946904
  H         9.1743013137        9.3354451385        1.8261592962
  H         9.3195180909       10.9967265872        1.5689479170
  C         7.0184985751        9.5072650366        6.0371321498
  H         7.9608907822       11.4351424445        6.2175566573
  H         6.5986905460       11.4526187390        5.1452699840
  C         6.3757963246        9.4576991324        7.4901702920
  H         7.8178461376        8.8321862071        6.0195886642
  H         6.3399758167        9.0037324007        5.4057635194
  C         5.1125213762       10.3218451218        7.5022178144
  H         7.0500298706        9.7582149129        8.3341277446
  H         6.3132065486        8.4057259613        7.6725690410
  C         3.8679508149        9.7197980791        6.8973751945
  H         4.9509765506       10.6093594237        8.5676986064
  H         5.2707127388       11.2714946753        7.0008297261
  C         2.5805625567       10.6961832493        6.7901227056
  H         3.6978360247        8.7403133605        7.3725889396
  H         4.0889760748        9.5410648973        5.8351629601
  C         2.8955431751       12.0360199561        6.0642422024
  C         2.3187285022       11.3705554385        8.0970046035
  C         1.4035938949        9.9949340788        6.0501201758
  C         2.7702249742       13.1029606668        6.8947436452
  C         3.3611291158       12.3935875546        4.7853845637
  C         2.3953222561       12.6931206791        8.1831768637
  C         1.8718489611       10.7352021348        9.2419720609
  H         1.9865895485        9.5666658265        5.2069516267
  H         1.1745757523        9.1597704985        6.6953518203
  C         0.3017469478       10.8605836492        5.5136519595
  S         3.0820712657       14.6115746171        6.1358158530
  C         3.5973259320       13.7558974356        4.7326928084
  H         3.5515559872       11.6125541036        4.0811578210
  C         2.0330998538       13.3086767167        9.3465715142
  H         1.6977330651        9.7417787780        9.2401055370
  C         1.5157373981       11.3417347000       10.4103278121
  H         0.7893452394       11.4108304750        4.7907888741
  H        -0.2187483509       11.4765405747        6.2898715836
  C        -0.7658711251       10.0499910253        4.7938773114
  C         3.9972552296       14.4702665424        3.4750114740
  C         1.5729071794       12.6878037325       10.5530770945
  H         2.1186105784       14.3553945551        9.3192898066
  C         1.1711559276       10.9132901100       11.6447285143
  H        -1.6677398211       10.6780539345        4.8779829130
  H        -1.1139918194        9.2224155345        5.4251624439
  C        -0.4190232329        9.6546371490        3.3258792301
  C         3.9575750340       15.8411425251        3.2570697840
  C         4.3190067766       13.6301833390        2.2527884802
  C         1.2024803372       13.3713613191       11.8262824169
  C         0.9837893013       11.9825281289       12.5122572261
  S         1.0719555546        9.3568690263       12.3915621597
  H         0.1318292471        8.7080441166        3.3070702167
  H         0.3496861669       10.3761310085        2.8669799666
  C        -1.6751447484        9.5108429856        2.5421266674
  N         3.5556828627       16.7715692841        4.2341721208
  C         4.1745334178       16.4282733718        1.9842638315
  C         4.5987252477       14.2442924345        1.0516537422
  H         4.2640405553       12.5487538605        2.2386634443
  C        -0.0746719564       14.2547030684       11.6304358237
  C         2.2710803621       14.1649197616       12.6276726409
  C         0.6543866444       11.4855584231       13.7456470924
  C         0.5367633378       10.1307399299       13.8217597115
  H        -2.1797924799        8.6097926274        2.8336868322
  H        -2.3424884563       10.3498146591        2.6483360261
  C        -1.4029653815        9.2682349416        1.0583577622
  S         3.5579525827       18.2308314033        3.5217353893
  N         3.9262830687       17.8283648733        1.9887483301
  C         4.6230817405       15.6838685098        0.8679785719
  H         4.8101433316       13.6519874848        0.1770116476
  H         0.1513585048       15.0044773893       10.8346486174
  H        -0.3364926823       14.7770430876       12.5342165001
  C        -1.2951963965       13.4431777190       11.0901515929
  H         2.7170585989       14.9554248118       11.9468189549
  H         1.9023466620       14.6932058936       13.5231400277
  C         3.4237899648       13.2922173188       13.2491243707
  H         0.4719296526       12.1687402305       14.5708259077
  C         0.2446972709        9.3243499954       15.0381437663
  H        -2.2892725627        9.3905620078        0.4942431752
  H        -1.0915918910        8.1729592962        0.8768653098
  C        -0.3500711357       10.0357549102        0.3383502575
  C         4.8963128553       16.3289582192       -0.3733489254
  H        -0.9572187196       13.1515771624       10.1518828074
  H        -1.3499793853       12.5075258842       11.5701658283
  C        -2.6562696390       14.1188141462       10.9152176023
  H         3.7350413237       12.4120689994       12.6257184492
  H         3.1307068303       12.8166444567       14.2268654364
  C         4.5636102399       14.1021394781       13.7043500170
  C         0.1072005135        7.9227554299       15.1184138407
  C        -0.0522603683       10.0312826333       16.3083264381
  H        -0.4014456760       11.0575412477        0.7047644773
  H         0.6406889482        9.5114995789        0.5420006143
  C        -0.6800583175       10.0898549783       -1.1630791249
  H         4.6574673255       17.3599757840       -0.3475002557
  C         5.2462096170       15.9474274379       -1.6678732976
  H        -2.5260005615       15.0079830217       10.2752022475
  H        -3.0179135758       14.3696727018       11.8580329852
  C        -3.6444590115       13.2265456379       10.2335709461
  H         4.9291462168       14.6427672376       12.8620542380
  H         4.1971925551       14.7450657043       14.5419296548
  C         5.5964788345       13.1716438764       14.3643941159
  N         0.2736331499        7.0440319973       14.0411524802
  C        -0.1228986857        7.2136332518       16.2858465126
  C        -0.2106097434        9.3844506805       17.5045786141
  H         0.0627576421       11.1438044180       16.3101784023
  H        -1.3526358447        9.2874010167       -1.5461508819
  H         0.2986222442        9.9453979449       -1.7961210284
  H        -1.0543046489       11.0823948623       -1.4598115186
  S         5.8079294162       14.4059962587       -2.0887981063
  C         4.9923717430       16.8683097948       -2.8034341726
  H        -3.2490577167       12.6529679131        9.3810446979
  H        -4.0615677720       12.5465820419       10.9837611501
  C        -4.8411426666       14.0865307691        9.7082733837
  H         5.7070145727       12.3116805410       13.6968226192
  H         5.2486350211       12.6776378184       15.3192749365
  C         6.9884689343       13.8537073361       14.5361074358
  S         0.2697488051        5.4864294677       14.6047719126
  N        -0.0635177664        5.8209065450       16.1170771624
  C        -0.2940076156        7.8759147907       17.5330928075
  H        -0.3893815226        9.9948901915       18.3620281599
  C         5.8728925293       15.0032458087       -3.7558076560
  N         5.3418807545       16.2634095090       -3.9501668510
  O         4.6813167138       18.0204760763       -2.6913361667
  H        -5.0092399981       14.9413228487       10.5021129326
  H        -4.4722795982       14.5402806964        8.8007227008
  C        -6.0456603027       13.1750439014        9.2496779624
  H         7.5591891595       13.2684393829       15.2646660970
  H         7.6299199848       13.7354912036       13.6627581965
  C         6.9549030449       15.3540098402       14.8686657004
  C        -0.5417958486        7.1252015596       18.6993103715
  S         6.2455680150       14.0749693252       -5.1435547795
  C         5.3009705979       17.0543555393       -5.1403109581
  H        -5.8464914240       12.9559855277        8.2016725169
  H        -6.1359155975       12.2486912504        9.8797419489
  C        -7.3923814278       13.9329598247        9.4025516111
  H         7.6996234459       15.6161078101       15.6633744002
  H         6.0298371156       15.7853407371       15.2257071103
  C         7.4723749260       16.2285716511       13.6784452265
  H        -0.2507307268        6.0688299659       18.5974101028
  C        -1.0161057431        7.4518953390       19.9735234944
  H         5.5380632710       16.4754485687       -6.0149650954
  H         6.0096359497       17.8842548618       -5.1203880007
  C         3.9245766321       17.6066393131       -5.3695140976
  H        -8.1269203453       13.5943995844        8.6930203421
  H        -7.1774619578       14.9958675824        9.2038799922
  C        -7.9081636344       13.8273668389       10.8096927706
  H         8.2868869009       15.7474544813       13.2273412143
  H         6.6987752300       16.2040230674       12.8972439047
  C         7.6829877123       17.6830234022       14.0709863759
  S        -1.3651483658        9.0194801025       20.5946818192
  C        -1.1914706589        6.4048795671       20.9264055536
  H         3.6737034459       18.5185441349       -4.8597857077
  H         3.2125374006       16.8539200981       -5.2606341968
  H         3.8256749910       17.9182081907       -6.3545388143
  H        -8.9742667873       13.7218406754       10.8398909587
  H        -7.2903528372       13.1339942255       11.4704417347
  H        -7.7387614763       14.7891372044       11.1946933190
  H         7.8985480265       18.3176956204       13.2291840163
  H         6.7093896380       18.0876330611       14.3563142721
  H         8.4205526790       17.9013378453       14.8711852497
  C        -1.9646687118        8.1422006358       22.1245785774
  N        -1.8170663697        6.8233301612       22.0916624011
  O        -0.9752680900        5.2126717987       20.6866092555
  S        -2.6898640377        8.8660134781       23.5984099847
  C        -2.1005542812        5.9071073800       23.1873604603
  H        -2.2255961304        4.8508721642       22.8081245407
  H        -3.0907618130        6.1058390056       23.6255013742
  C        -0.8243118518        5.8940524961       24.1250500550
  H        -0.0528020815        5.3007544500       23.6795259176
  H        -0.8728080720        5.4298896242       25.1036050302
  H        -0.4043379256        6.8704863351       24.2354458877
