352
i =
  H        -2.7158554676       14.9370130845       16.1682265907
  C        -2.5655672628       13.8507816865       16.2079826107
  H        -3.4937880902       13.5475617881       16.4342715538
  C        -1.5912738161       13.4780568227       17.3448688839
  C        -2.0525874595       13.2826952425       14.8455467254
  C        -2.0268485156       13.9194884435       18.7067119881
  H        -1.5981736916       12.4021907143       17.3598545366
  H        -0.4965622839       13.7099125846       17.2315761260
  H        -1.1437432856       13.8038353862       14.6346817229
  H        -1.8813852930       12.2333441410       14.7761078122
  H        -2.8190800358       13.5618856968       14.1289646135
  C        -1.7633967526       12.8136808285       19.7364173475
  H        -3.0695655965       14.2154029049       18.7510741095
  H        -1.4797336629       14.8336351429       18.9392718755
  C        -2.3039761388       13.2282589461       21.1344922081
  H        -2.3939734584       11.9895189041       19.4958456192
  H        -0.6879698335       12.5620117092       19.8326176219
  C        -1.4352627014       12.7812933002       22.3083348077
  H        -3.2955751184       12.8196419545       21.2966282935
  H        -2.3374547735       14.3450272140       21.2049817781
  C        -0.1467895410       13.6538009981       22.4029981002
  H        -1.9712246251       12.8032082984       23.2315784484
  H        -1.1586773300       11.7286894442       22.0920097647
  C         1.0163160748       13.0067344635       23.1707028220
  H         0.2416458430       13.7920278849       21.4338891946
  H        -0.3124209047       14.6099498384       22.6735094549
  C         1.4589715768       11.6593692873       22.5531611066
  C         0.7004171609       12.3263955164       24.4322590073
  C         2.1711378407       14.0589590119       23.4166250888
  C         1.3319164069       10.5438868323       23.3964387386
  C         1.9284014212       11.2865321689       21.2578933681
  C         0.7270031270       10.9582234504       24.5490018660
  C         0.2642387952       13.0020460122       25.5824026438
  H         2.4871437795       14.5536839995       22.5029926568
  H         1.8425312965       14.9032781161       23.9760902677
  C         3.4449226704       13.4125314833       23.9651518722
  S         1.7626505633        9.0491043656       22.7158475549
  C         2.1547661596        9.9217493246       21.2178459679
  H         2.1746388638       11.9995004281       20.4506911028
  C         0.3248948081       10.3896629301       25.7123726830
  H         0.1437611348       14.0893031577       25.5181768218
  C        -0.0999085353       12.4068418294       26.7586603691
  H         3.7662481568       12.5831825041       23.3101290959
  H         3.1530975155       13.0104951622       24.9346406097
  C         4.7301515172       14.3005140910       24.0635172114
  C         2.5092173426        9.2609323092       19.9622846934
  C        -0.1027462522       11.0565392612       26.8746119912
  H         0.1713206150        9.3192226527       25.8270567426
  C        -0.5849257573       12.9054820793       27.9842027024
  H         5.5404174724       13.8089609440       24.6509880323
  H         4.5465162224       15.1875368948       24.6445323968
  C         5.3579026645       14.5798203324       22.6995393397
  C         2.4556881928        7.8932540957       19.6063000175
  C         2.9554681299       10.2078356674       18.8049519539
  C        -0.5480521774       10.4393769221       28.1846026877
  C        -0.8467602915       11.8301858817       28.8474077409
  S        -0.9349596403       14.4300302428       28.7744029418
  H         6.0431005460       15.3731334415       22.8507264256
  H         4.5453460610       15.0625426869       22.0870181867
  C         6.1105425508       13.3466044698       22.0677867864
  N         2.1749020271        6.8780154241       20.5243259526
  C         2.8582649757        7.4641327036       18.3484023434
  C         3.1472525311        9.6827435598       17.4970951048
  H         3.2679862875       11.1930003479       19.0360787762
  C         0.5278629408        9.6760738039       29.0296276647
  C        -1.8525406071        9.5983215934       28.0028204737
  C        -1.1932127240       12.2618961696       30.1697298174
  C        -1.2452288489       13.6045847785       30.2634722494
  H         7.1123440478       13.3055241618       22.4487604974
  H         5.6090601034       12.4088637521       22.1920932259
  C         6.0597298887       13.4237200464       20.5480336106
  S         2.2232473655        5.5015048376       19.7395295044
  N         2.9031511579        6.0424761213       18.3678262242
  C         3.2474986902        8.2348795655       17.2519931254
  H         3.6089494857       10.3447863440       16.7495167835
  H         0.7928916888        8.7451431301       28.5137892589
  H         0.0276094888        9.5080306014       29.9618314197
  C         1.9053712464       10.3283121601       29.2988703104
  H        -1.7503344256        8.7174234187       27.4511767673
  H        -2.1356031690        9.2359509304       28.9976939440
  C        -2.9162766547       10.4744245756       27.3015487547
  H        -1.2974423701       11.5317329292       30.8814027229
  C        -1.6121551297       14.4201408188       31.4870852819
  H         5.3833287879       14.1508914803       20.1524943067
  H         5.7929203058       12.4545626733       20.1608708708
  C         7.4048442046       13.6674370105       19.8765070949
  C         3.5427755653        7.4698620827       16.0893442384
  H         2.3794929712       10.6503464273       28.3587413127
  H         1.6144730747       11.0917180807       29.9547430593
  C         2.9111512672        9.4258288896       30.0403045808
  H        -2.6715082028       11.0466652351       26.4298917821
  H        -3.1998736789       11.2941865376       28.0377422674
  C        -4.1931271504        9.6921086872       26.9074554164
  C        -1.5618672732       15.8346682966       31.6139179680
  C        -1.7163689850       13.7180048130       32.8031830100
  H         7.9305205843       14.5479158449       20.2357917482
  H         8.0747796362       12.8633305688       20.2333425145
  C         7.4306199375       13.5839084352       18.3879825285
  H         3.6774022314        6.4449882718       16.1294390751
  C         3.9351333376        7.8810252076       14.8302641915
  H         3.5696874017        8.9095961908       29.2579927267
  H         2.4814652557        8.6531201821       30.6448770114
  C         3.8252425592       10.2349887011       30.9276897501
  H        -4.0426496468        8.8964479679       26.2274729051
  H        -4.5230225517        9.1685136173       27.8249438767
  C        -5.2733466834       10.6254166025       26.3600976779
  N        -1.2671177985       16.7763006608       30.5721009131
  C        -1.7197992660       16.5212563362       32.8032187970
  C        -2.0964102236       14.4565211866       33.9073596281
  H        -1.4652831829       12.7200855443       33.0283228544
  H         6.4802956454       13.7017178342       17.9546249546
  H         8.0112860794       14.4501047530       17.9226096467
  H         7.8873503868       12.6861087539       17.9012113456
  S         4.2628250631        9.4703043254       14.4552767541
  C         4.1135164607        6.8705299778       13.8179780733
  H         4.0332938525       11.2330565718       30.4450399121
  H         3.2845679359       10.2637900162       31.9010256487
  C         5.1883554094        9.5178363039       31.1999967794
  H        -4.8778534874       11.2717326242       25.5761441664
  H        -5.5691628942       11.3487591078       27.0994764641
  C        -6.3915604971        9.8293126236       25.6962366235
  S        -1.2165773369       18.3125087499       31.1515219029
  N        -1.5995768246       17.8918264393       32.6927217763
  C        -2.1479414920       15.9255861766       33.9783087678
  H        -2.2296668563       13.9552482144       34.8232829379
  C         4.7322260920        8.8100085929       12.9064995819
  N         4.6244344759        7.4447220483       12.7599747492
  O         3.9048224093        5.6804689246       13.9352631544
  H         5.7912133376       10.1607519240       31.9287706432
  H         5.7661477673        9.4373872442       30.3053587067
  C         5.0910932723        8.1237768770       31.9635898857
  H        -6.0739312553        9.1026355229       25.0051881283
  H        -6.8359986507        9.1878885451       26.4195245376
  C        -7.4774005681       10.7052110449       24.9516785050
  C        -2.4742885641       16.6919811000       35.1267745309
  S         5.3007448131        9.7764679255       11.5630868573
  C         4.7782436761        6.7502251851       11.4945395147
  H         5.6593986785        8.2038192087       32.8859357473
  H         4.0630263480        8.0061117197       32.3891649119
  C         5.5394016387        6.9900183193       31.1516367677
  H        -7.0934622601       11.2356884780       24.1130314936
  H        -7.6744906962       11.5220684326       25.6803788123
  C        -8.7728125407        9.9805655515       24.6236552927
  H        -2.3959185944       17.7318409214       35.1144086166
  C        -2.8835339738       16.3934992742       36.4178974557
  H         5.5146317463        7.1873960776       10.7975122310
  H         5.0613193657        5.6730184074       11.6777790324
  C         3.4676958577        6.7903670181       10.7045883228
  H         4.9447992524        6.9967298961       30.1761182258
  H         5.3277152781        6.0185709144       31.5859678573
  C         7.0922809576        6.9174651236       30.9234317961
  H        -9.2378906545       10.5292682065       23.9009641711
  H        -8.6215633257        8.9994775136       24.1831955006
  C        -9.8205430202        9.9110972066       25.6944610391
  S        -3.5516527702       14.8943721540       37.0459496195
  C        -3.0437086012       17.5032487874       37.4085951972
  H         3.1981546095        5.8665432484       10.1322833210
  H         2.5854715972        7.2172333447       11.2436087414
  H         3.6829470958        7.5420677073        9.9033801545
  H         7.2774206176        6.3461831043       29.9650554146
  H         7.5473691063        6.4397194850       31.8108663735
  H         7.5797934670        7.8303765785       30.7966657716
  H        -9.8704402233       10.9236503946       26.1115727249
  H        -9.4206396933        9.3154004874       26.4408044020
  H       -10.8623448319        9.6120945333       25.4641004866
  C        -3.9968930315       15.8175307700       38.4525122336
  N        -3.6936890084       17.1017062096       38.4635292265
  O        -2.7296445183       18.7124299007       37.1037311900
  S        -5.0289827944       15.1665999476       39.7732622931
  C        -3.9807427875       17.9508139844       39.5859307593
  H        -3.9984485803       18.9978511609       39.2153548788
  H        -4.9137721820       17.8369972214       40.1148393667
  C        -2.9400040733       17.8301177118       40.7053763463
  H        -3.1570991231       18.4872274380       41.5462295391
  H        -2.9805715551       16.8590913940       41.1790317570
  H        -1.8834623455       17.9964897033       40.3792304998
  H         7.5301451134       11.6997267436        3.6030481663
  C         8.2059635152       10.8327407756        3.5313051812
  H         7.5153746784       10.0329517512        3.7608460834
  C         9.2524472426       10.9804710037        4.6505905900
  C         8.8739071912       10.7186505708        2.1789571049
  C         8.6609619190       10.9686621069        6.0630990083
  H        10.1057919591       10.1848517216        4.4877747425
  H         9.7681928333       11.9317556033        4.7096659290
  H         8.1142985529       10.6684556962        1.4140715815
  H         9.5390607830        9.9155447087        1.9374097954
  H         9.5056889154       11.5815704072        2.0555570019
  C         8.0370444499        9.5903368660        6.5179835561
  H         9.5014860746       11.1129448627        6.7445986824
  H         8.0893124734       11.8917064048        6.2363487189
  C         7.2782740018        9.5127371807        7.8651703375
  H         8.8564937153        8.9258537021        6.7187698604
  H         7.4173961392        9.2366379687        5.6901112204
  C         6.0326923713       10.3595847818        7.9852399013
  H         8.0710110267        9.8838594972        8.5055356653
  H         6.9223496141        8.5318353615        8.2984319584
  C         4.8097282864        9.7293030253        7.3381119279
  H         5.9733008642       10.6032158387        9.0353403075
  H         6.3585632515       11.3412365548        7.5313368089
  C         3.5118077261       10.5495147157        7.1025591384
  H         4.4780116245        8.7863472665        7.8528906804
  H         5.2101573433        9.3874995507        6.4201449903
  C         3.8440705134       11.9102267073        6.4293345786
  C         2.9975518707       11.3696218964        8.2591179788
  C         2.3781472049        9.8931215145        6.3343729141
  C         3.5943925843       13.0374788982        7.1819513325
  C         4.3966065596       12.2403577144        5.1672098875
  C         3.0546033797       12.6912802403        8.3669059600
  C         2.4978806047       10.7154277753        9.3725147066
  H         2.7377127898        9.3830582465        5.4636052834
  H         2.0254613102        9.0637836134        7.0196141722
  C         1.1413525430       10.7653466018        6.0752627707
  S         3.9522389718       14.5092695749        6.3701905784
  C         4.3234810696       13.5829662612        4.9429209813
  H         4.6203028853       11.4423647943        4.4092739308
  C         2.5935625717       13.3244222140        9.5065565687
  H         2.5430915050        9.6362760671        9.3804524610
  C         1.9944559864       11.3179754847       10.4916073379
  H         1.3128159491       11.8358066545        5.8195661683
  H         0.6037701721       10.9543465892        6.9885716500
  C         0.1315841367       10.1123737101        5.1098893940
  C         4.7778793809       14.2803257621        3.6513597785
  C         2.0357111824       12.6921339351       10.5912625612
  H         2.7327554657       14.4015916500        9.5802509651
  C         1.5052082203       10.9197707769       11.6899709095
  H        -0.8179105600       10.7156387222        5.1212782423
  H        -0.2885175195        9.2111335997        5.5253078971
  C         0.5780658013        9.8952879089        3.7173491236
  C         4.7198201740       15.6758421111        3.3861449162
  C         5.0686352173       13.4478745276        2.4271437492
  C         1.4695055213       13.3991886828       11.8467208509
  C         1.3108435377       11.9710268383       12.5762255465
  S         1.3594110922        9.3838497221       12.3988160937
  H         1.3476579079        9.1268418046        3.6253419876
  H         1.0400864324       10.8083616760        3.2908714645
  C        -0.6408652976        9.5708846455        2.8036769933
  N         4.3148585141       16.6467577295        4.2847622966
  C         4.9645845029       16.2756832299        2.2057977764
  C         5.2777960176       14.0169216186        1.1804037086
  H         5.2869796646       12.3830190782        2.4859804407
  C         0.2440864598       14.2763269983       11.7601170722
  C         2.5189919717       14.1114507997       12.6954365151
  C         0.9666208541       11.5214015025       13.8458843780
  C         0.9292904498       10.1555759564       13.9025137946
  H        -1.2580675170        8.8350482630        3.1685237431
  H        -1.1772311903       10.4912845614        2.7744524460
  C        -0.4002186593        9.2720460574        1.3204403074
  S         4.3435479385       18.1262211381        3.5783516479
  N         4.8555012704       17.6812588008        2.1207293522
  C         5.2876764121       15.4937807919        1.0305016000
  H         5.5560261829       13.3953395134        0.2820717142
  H         0.4725610554       14.9672659684       10.9904355049
  H         0.1043492463       14.9181580440       12.6322411044
  C        -1.1084064075       13.4564508935       11.4536575152
  H         2.8915846829       15.1217829686       12.2563053548
  H         2.0394221616       14.3814639159       13.6596144255
  C         3.7829218063       13.3926060973       13.0514081927
  H         0.8283377206       12.3185120048       14.5815814296
  C         0.6351073573        9.4212663157       15.1473127252
  H        -0.8401901053        8.3155028428        1.0060836486
  H         0.7143795154        9.0794424948        1.1523158670
  C        -0.7196602821       10.4490701706        0.3907156925
  C         5.3884276930       16.1681059198       -0.2313873035
  H        -0.8707560874       12.8514898496       10.6169639906
  H        -1.3258429134       12.8008650822       12.2876767983
  C        -2.2995821382       14.3024474175       11.0241169600
  H         4.1135750901       12.9004019234       12.2114971986
  H         3.6117855205       12.6852280820       13.8232771998
  C         4.9268025413       14.3005269544       13.4754529165
  C         0.4626052075        8.0492452376       15.2737441608
  C         0.2246171666       10.1957938119       16.3272454023
  H        -1.8238331232       10.5897075602        0.4478212699
  H        -0.3469128385       11.2384515961        0.9299451516
  C        -0.2280771380       10.2405064361       -1.0661545849
  H         5.0769591708       17.2274269451       -0.1676716426
  C         5.7085544834       15.8260669299       -1.5302763654
  H        -1.9222871515       15.0359252400       10.3365214455
  H        -2.7523792315       14.8133565856       11.7969276467
  C        -3.2953240991       13.3785542306       10.2142969977
  H         5.4723208639       14.7489561590       12.6904374763
  H         4.4421751241       15.2379103609       13.8526077103
  C         5.9241710152       13.7172747071       14.4537198136
  N         0.7851519452        7.1279885615       14.2982172499
  C         0.1047102822        7.4701565822       16.4562738101
  C         0.0073723597        9.6022975250       17.5949857524
  H         0.3478414009       11.2136782347       16.2815970269
  H        -0.0312808334       11.1494433488       -1.6696922634
  H        -0.9995398166        9.5907347517       -1.6227216114
  H         0.7408993441        9.7338107521       -1.2145122266
  S         6.1538645821       14.2116597264       -2.1228288128
  C         5.7074507672       16.9463031292       -2.5029519749
  H        -2.7252694960       12.9035156874        9.4374666477
  H        -3.7280729742       12.5822805800       10.7254219445
  C        -4.2857957493       14.3375758629        9.5364452876
  H         6.2718307618       12.7655626002       13.9562609927
  H         5.4461625158       13.4214500372       15.3895555103
  C         7.1974634161       14.4946500764       14.7736861112
  S         0.5089264123        5.6021202610       14.8844181677
  N        -0.0986353805        6.0892157888       16.2867299023
  C        -0.1868605826        8.0948968977       17.6816917418
  H        -0.2255718584       10.2005765532       18.3749612448
  C         6.3516514453       15.0248723039       -3.6394931976
  N         6.0988611704       16.3687426676       -3.6358759046
  O         5.5323348192       18.1404872761       -2.2070024406
  H        -4.8600155845       15.0415239653       10.1614952886
  H        -3.7545956841       14.7950710866        8.6966241015
  C        -5.4631836322       13.4747665084        9.1128160579
  H         7.7887617519       13.9969979928       15.5471943003
  H         7.6845131164       14.6177043456       13.8490367338
  C         6.8693711730       15.8516351191       15.3887981037
  C        -0.5281508178        7.2938399099       18.8517720386
  S         6.5986406024       14.2001995970       -5.2075333915
  C         6.0855183987       17.1045400332       -4.8706072533
  H        -5.4515780593       12.9834068818        8.1599217017
  H        -5.6786692867       12.7623898831        9.9215224759
  C        -6.7659675404       14.1800308602        9.0757675902
  H         6.5050260299       15.7808447296       16.4404772811
  H         6.0335259108       16.3728979001       14.9447683841
  C         8.1031935458       16.7154733299       15.6233230621
  H        -0.3838303977        6.2661263422       18.6832093562
  C        -1.0163305895        7.5804993169       20.0922846030
  H         6.7276580777       16.7020218747       -5.6456592240
  H         6.5311377693       18.0402072434       -4.7469464961
  C         4.6980484238       17.1883200632       -5.5362330289
  H        -7.2522479857       13.6784488436        8.2572973871
  H        -6.6234350836       15.2459512483        8.7119908033
  C        -7.5256229650       14.1050298473       10.3783665531
  H         7.8358076568       17.5059505092       16.3502207861
  H         8.9720732580       16.3018408372       16.1313295826
  C         8.5898322588       17.5468664737       14.3883908788
  S        -1.6504463555        9.1159831544       20.5210467775
  C        -1.1800792770        6.5803527863       21.1550578299
  H         4.0399600735       16.2730078510       -5.3933522177
  H         4.8672150389       17.2167034161       -6.5731990194
  H         4.0586492680       18.0880912539       -5.2867615031
  H        -7.1266264741       14.9321161928       10.9795938552
  H        -8.6223339353       14.3932702064       10.3105262888
  H        -7.4559289229       13.1333078935       10.8864129791
  H         9.5469956178       17.1611791431       13.9737595060
  H         7.8701358681       17.3732762207       13.5883100553
  H         8.6798803780       18.6402968644       14.4513324287
  C        -2.0802444030        8.4741300042       22.1067219517
  N        -1.7838893428        7.1589858848       22.1500381414
  O        -0.8548832846        5.4277254644       21.0399753968
  S        -2.6523796401        9.2242822033       23.5527238057
  C        -1.9721729412        6.4461355997       23.4178307611
  H        -2.0884418672        5.3411395860       23.1706008190
  H        -2.9913308504        6.6512857588       23.8502196968
  C        -0.8011832893        6.6741389761       24.3849974716
  H        -0.2566126628        5.6946416274       24.4567355401
  H        -1.2952070848        6.8606090991       25.3361926069
  H        -0.2180117293        7.5440208630       24.2782118420
